WIDTH = 32;
DEPTH = 64;

ADDRESS_RADIX = HEX;
DATA_RADIX = HEX;

CONTENT
BEGIN
 0 : 00061800;
 1 : 00061880;
 2 : 00071800;
 3 : 00071000;
 4 : 00061900;
 5 : 00061980;
 6 : 00071900;
 7 : 00071100;
 8 : 00069900;
 9 : 00061A00;
 A : 00061A80;
 B : 00061B00;
 C : 0006DB00;
 D : 00053A00;
 E : 00073A80;
 F : 00075A00;
 10 : 00061803;
 11 : 00061813;
 12 : 00041813;
 13 : 00020000;
 14 : 00040050;
 15 : 00040000;
 16 : 00069B80;
 17 : 00061801;
 18 : 00067801;
 19 : 00071801;
 1A : 00061819;
 1B : 00071819;
 1C : 00061811;
 1D : 00063811;
 1E : 00041900;
 1F : 0004B900;
 20 : 00069802;
 21 : 00069822;
 22 : 02000000;
 23 : 02002000;
 24 : 02000002;
 25 : 02000001;
 26 : 00408000;
 27 : 00080000;
 28 : 00080008;
 29 : 00080010;
 2A : 00080018;
 2B : 002C5010;
 2C : 002C5410;
 2D : 001C0000;
 2E : 001C0008;
 2F : 001C0010;
 30 : 001C0018;
 31 : 003C5010;
 32 : 003C5410;
 33 : 0200E000;
 34 : 01000000;
 35 : 0080A000;
 36 : 00008000;
 37 : 00021804;
 38 : 00021805;
 39 : 00008000;
 3A : 002C1010;
 3B : 002C1410;
 3C : 003C1010;
 3D : 003C1410;
 3E : 04069802;
 3F : 00069806;
END;
