WIDTH = 8;
DEPTH = 16384;
ADDRESS_RADIX = HEX;
DATA_RADIX = HEX;
CONTENT
BEGIN
 0 : 00;
 1 : 1f;
 2 : ff;
 3 : fc;
 4 : 00;
 5 : e0;
 6 : 00;
 7 : 08;
 8 : 33;
 9 : fc;
 A : 18;
 B : f9;
 C : 00;
 D : f0;
 E : 00;
 F : 00;
 10 : 33;
 11 : fc;
 12 : 35;
 13 : cc;
 14 : 00;
 15 : f0;
 16 : 00;
 17 : 02;
 18 : 41;
 19 : f8;
 1A : 38;
 1B : 04;
 1C : 43;
 1D : f8;
 1E : 38;
 1F : 10;
 20 : 20;
 21 : bc;
 22 : 12;
 23 : 34;
 24 : 56;
 25 : 78;
 26 : 12;
 27 : d8;
 28 : 12;
 29 : d8;
 2A : 32;
 2B : d8;
 2C : 33;
 2D : fc;
 2E : 03;
 2F : 4c;
 30 : 00;
 31 : f0;
 32 : 00;
 33 : 2e;
 34 : 33;
 35 : fc;
 36 : 06;
 37 : b1;
 38 : 00;
 39 : f0;
 3A : 00;
 3B : 30;
 3C : 33;
 3D : fc;
 3E : 00;
 3F : 7d;
 40 : 00;
 41 : f0;
 42 : 00;
 43 : 32;
 44 : 33;
 45 : fc;
 46 : 06;
 47 : 81;
 48 : 00;
 49 : f0;
 4A : 00;
 4B : 3c;
 4C : 33;
 4D : fc;
 4E : 00;
 4F : cb;
 50 : 00;
 51 : f0;
 52 : 00;
 53 : 38;
 54 : 33;
 55 : fc;
 56 : 02;
 57 : 0b;
 58 : 00;
 59 : f0;
 5A : 00;
 5B : 3e;
 5C : 33;
 5D : fc;
 5E : 00;
 5F : 18;
 60 : 00;
 61 : f0;
 62 : 00;
 63 : 42;
 64 : 33;
 65 : fc;
 66 : 00;
 67 : 26;
 68 : 00;
 69 : f0;
 6A : 00;
 6B : 46;
 6C : 33;
 6D : fc;
 6E : 02;
 6F : 06;
 70 : 00;
 71 : f0;
 72 : 00;
 73 : 48;
 74 : 33;
 75 : fc;
 76 : 01;
 77 : f4;
 78 : 00;
 79 : f0;
 7A : 00;
 7B : 40;
 7C : 33;
 7D : fc;
 7E : 02;
 7F : 05;
 80 : 00;
 81 : f0;
 82 : 00;
 83 : 44;
 84 : 41;
 85 : fa;
 86 : 00;
 87 : 28;
 88 : 43;
 89 : f8;
 8A : 3f;
 8B : fc;
 8C : 3e;
 8D : 3c;
 8E : 10;
 8F : 00;
 90 : 22;
 91 : d8;
 92 : 51;
 93 : cf;
 94 : ff;
 95 : fc;
 96 : 41;
 97 : fa;
 98 : 00;
 99 : 14;
 9A : 43;
 9B : f8;
 9C : 38;
 9D : 00;
 9E : 22;
 9F : d8;
 A0 : 22;
 A1 : d8;
 A2 : 22;
 A3 : d8;
 A4 : 22;
 A5 : d8;
 A6 : 43;
 A7 : f8;
 A8 : 38;
 A9 : 00;
 AA : 4e;
 AB : d1;
 AC : 41;
 AD : f8;
 AE : 40;
 AF : 00;
 B0 : 4e;
 B1 : d0;
 B2 : 23;
 B3 : fc;
 B4 : 00;
 B5 : 07;
 B6 : 00;
 B7 : 07;
 B8 : 00;
 B9 : f0;
 BA : 21;
 BB : 0c;
 BC : 33;
 BD : fc;
 BE : ff;
 BF : ff;
 C0 : 00;
 C1 : f0;
 C2 : 00;
 C3 : 4e;
 C4 : 2e;
 C5 : 7c;
 C6 : 00;
 C7 : 1f;
 C8 : ff;
 C9 : fc;
 CA : 4e;
 CB : b9;
 CC : 00;
 CD : 00;
 CE : 40;
 CF : 7c;
 D0 : 4e;
 D1 : b9;
 D2 : 00;
 D3 : 00;
 D4 : 42;
 D5 : 58;
 D6 : 4e;
 D7 : b9;
 D8 : 00;
 D9 : 00;
 DA : 41;
 DB : 28;
 DC : 4e;
 DD : b9;
 DE : 00;
 DF : 00;
 E0 : 40;
 E1 : 46;
 E2 : 23;
 E3 : c0;
 E4 : 00;
 E5 : f0;
 E6 : 00;
 E7 : 20;
 E8 : 33;
 E9 : fc;
 EA : 06;
 EB : c1;
 EC : 00;
 ED : f0;
 EE : 00;
 EF : 28;
 F0 : 4e;
 F1 : b9;
 F2 : 00;
 F3 : 00;
 F4 : 42;
 F5 : f0;
 F6 : 4a;
 F7 : fc;
 F8 : 2f;
 F9 : 00;
 FA : 21;
 FB : fc;
 FC : 00;
 FD : 00;
 FE : 42;
 FF : 30;
 100 : 01;
 101 : 00;
 102 : 30;
 103 : 39;
 104 : 00;
 105 : 00;
 106 : 66;
 107 : 0e;
 108 : 00;
 109 : 40;
 10A : 00;
 10B : 01;
 10C : 33;
 10D : c0;
 10E : 00;
 10F : f0;
 110 : 00;
 111 : 4e;
 112 : 30;
 113 : 39;
 114 : 00;
 115 : f0;
 116 : 00;
 117 : e0;
 118 : 00;
 119 : 40;
 11A : 00;
 11B : 01;
 11C : 33;
 11D : c0;
 11E : 00;
 11F : f0;
 120 : 00;
 121 : e0;
 122 : 40;
 123 : c0;
 124 : c0;
 125 : 7c;
 126 : f8;
 127 : ff;
 128 : 46;
 129 : c0;
 12A : 20;
 12B : 1f;
 12C : 4e;
 12D : 75;
 12E : 2f;
 12F : 00;
 130 : 30;
 131 : 39;
 132 : 00;
 133 : f1;
 134 : 40;
 135 : 02;
 136 : 02;
 137 : 40;
 138 : 00;
 139 : 10;
 13A : 67;
 13B : 00;
 13C : 00;
 13D : 16;
 13E : 34;
 13F : 3c;
 140 : 03;
 141 : 37;
 142 : 30;
 143 : 3c;
 144 : 05;
 145 : 81;
 146 : 3c;
 147 : 3c;
 148 : 01;
 149 : 0a;
 14A : 38;
 14B : 3c;
 14C : 00;
 14D : f1;
 14E : 60;
 14F : 00;
 150 : 00;
 151 : 12;
 152 : 34;
 153 : 3c;
 154 : 03;
 155 : 4b;
 156 : 30;
 157 : 3c;
 158 : 05;
 159 : 65;
 15A : 3c;
 15B : 3c;
 15C : 01;
 15D : 42;
 15E : 38;
 15F : 3c;
 160 : 01;
 161 : 1f;
 162 : 33;
 163 : c0;
 164 : 00;
 165 : 00;
 166 : 66;
 167 : 10;
 168 : 33;
 169 : c4;
 16A : 00;
 16B : 00;
 16C : 66;
 16D : 12;
 16E : 32;
 16F : 00;
 170 : e2;
 171 : 41;
 172 : 94;
 173 : 41;
 174 : d4;
 175 : 7c;
 176 : 00;
 177 : 04;
 178 : 92;
 179 : 7c;
 17A : 00;
 17B : 01;
 17C : 00;
 17D : 41;
 17E : 04;
 17F : 00;
 180 : 33;
 181 : c1;
 182 : 00;
 183 : 00;
 184 : 66;
 185 : 0a;
 186 : 33;
 187 : c1;
 188 : 00;
 189 : f0;
 18A : 00;
 18B : 3c;
 18C : 33;
 18D : c2;
 18E : 00;
 18F : 00;
 190 : 66;
 191 : 08;
 192 : 33;
 193 : c2;
 194 : 00;
 195 : f0;
 196 : 00;
 197 : 38;
 198 : 33;
 199 : c2;
 19A : 00;
 19B : f0;
 19C : 00;
 19D : 3a;
 19E : 3a;
 19F : 06;
 1A0 : 9a;
 1A1 : 44;
 1A2 : 33;
 1A3 : c5;
 1A4 : 00;
 1A5 : 00;
 1A6 : 66;
 1A7 : 0c;
 1A8 : dc;
 1A9 : 44;
 1AA : 33;
 1AB : c6;
 1AC : 00;
 1AD : 00;
 1AE : 66;
 1AF : 0e;
 1B0 : 33;
 1B1 : f9;
 1B2 : 00;
 1B3 : 00;
 1B4 : 66;
 1B5 : 0c;
 1B6 : 00;
 1B7 : f0;
 1B8 : 00;
 1B9 : 46;
 1BA : 33;
 1BB : fc;
 1BC : ff;
 1BD : ff;
 1BE : 00;
 1BF : f0;
 1C0 : 00;
 1C1 : 48;
 1C2 : 23;
 1C3 : fc;
 1C4 : 00;
 1C5 : 00;
 1C6 : 00;
 1C7 : 00;
 1C8 : 00;
 1C9 : f0;
 1CA : 00;
 1CB : 2a;
 1CC : 33;
 1CD : fc;
 1CE : 00;
 1CF : 00;
 1D0 : 00;
 1D1 : f0;
 1D2 : 00;
 1D3 : 58;
 1D4 : 20;
 1D5 : 1f;
 1D6 : 4e;
 1D7 : 75;
 1D8 : 00;
 1D9 : 00;
 1DA : 48;
 1DB : e7;
 1DC : 7c;
 1DD : 80;
 1DE : 41;
 1DF : f9;
 1E0 : 00;
 1E1 : 00;
 1E2 : 66;
 1E3 : 20;
 1E4 : 24;
 1E5 : 08;
 1E6 : d4;
 1E7 : bc;
 1E8 : 00;
 1E9 : 00;
 1EA : 00;
 1EB : 20;
 1EC : 42;
 1ED : 81;
 1EE : 20;
 1EF : 3c;
 1F0 : 00;
 1F1 : 00;
 1F2 : 80;
 1F3 : 03;
 1F4 : 4e;
 1F5 : b9;
 1F6 : 00;
 1F7 : 00;
 1F8 : 42;
 1F9 : 10;
 1FA : 36;
 1FB : 39;
 1FC : 00;
 1FD : 00;
 1FE : 66;
 1FF : 0e;
 200 : e7;
 201 : 4b;
 202 : 80;
 203 : 43;
 204 : 20;
 205 : c1;
 206 : 20;
 207 : c0;
 208 : 02;
 209 : 80;
 20A : ff;
 20B : 00;
 20C : 00;
 20D : 07;
 20E : 00;
 20F : 80;
 210 : 00;
 211 : 00;
 212 : 40;
 213 : 00;
 214 : 36;
 215 : 39;
 216 : 00;
 217 : 00;
 218 : 66;
 219 : 0c;
 21A : e7;
 21B : 4b;
 21C : 80;
 21D : 43;
 21E : 20;
 21F : c1;
 220 : 20;
 221 : c0;
 222 : 42;
 223 : 81;
 224 : 42;
 225 : 80;
 226 : 4e;
 227 : b9;
 228 : 00;
 229 : 00;
 22A : 42;
 22B : 10;
 22C : 2a;
 22D : 3c;
 22E : 00;
 22F : 00;
 230 : 00;
 231 : f0;
 232 : 33;
 233 : c5;
 234 : 00;
 235 : 00;
 236 : 66;
 237 : 48;
 238 : e1;
 239 : 8d;
 23A : ed;
 23B : 8d;
 23C : 80;
 23D : 85;
 23E : 36;
 23F : 39;
 240 : 00;
 241 : 00;
 242 : 66;
 243 : 12;
 244 : 96;
 245 : 7c;
 246 : 00;
 247 : f0;
 248 : d6;
 249 : 79;
 24A : 00;
 24B : 00;
 24C : 66;
 24D : 0c;
 24E : 02;
 24F : 43;
 250 : ff;
 251 : fe;
 252 : e7;
 253 : 4b;
 254 : 80;
 255 : 43;
 256 : 26;
 257 : 3c;
 258 : 00;
 259 : 01;
 25A : 00;
 25B : 00;
 25C : 02;
 25D : 83;
 25E : 00;
 25F : ff;
 260 : ff;
 261 : f0;
 262 : e1;
 263 : 8b;
 264 : 82;
 265 : 83;
 266 : 23;
 267 : c1;
 268 : 00;
 269 : 00;
 26A : 66;
 26B : 4a;
 26C : 23;
 26D : c0;
 26E : 00;
 26F : 00;
 270 : 66;
 271 : 4e;
 272 : 20;
 273 : c1;
 274 : 20;
 275 : c0;
 276 : 22;
 277 : 3c;
 278 : 00;
 279 : 00;
 27A : 80;
 27B : 00;
 27C : 20;
 27D : 3c;
 27E : 00;
 27F : 00;
 280 : c0;
 281 : 00;
 282 : 36;
 283 : 39;
 284 : 00;
 285 : 00;
 286 : 66;
 287 : 10;
 288 : e4;
 289 : 4b;
 28A : 96;
 28B : 7c;
 28C : 01;
 28D : 40;
 28E : e2;
 28F : 4b;
 290 : 80;
 291 : 43;
 292 : 78;
 293 : 50;
 294 : 26;
 295 : 04;
 296 : e1;
 297 : 8c;
 298 : e1;
 299 : 8c;
 29A : e5;
 29B : 8c;
 29C : 80;
 29D : 84;
 29E : e1;
 29F : 8c;
 2A0 : e5;
 2A1 : 8c;
 2A2 : 80;
 2A3 : 84;
 2A4 : e8;
 2A5 : 8b;
 2A6 : 82;
 2A7 : 83;
 2A8 : 20;
 2A9 : c1;
 2AA : 20;
 2AB : c0;
 2AC : 42;
 2AD : 81;
 2AE : 70;
 2AF : 0c;
 2B0 : 20;
 2B1 : c1;
 2B2 : 20;
 2B3 : c0;
 2B4 : 20;
 2B5 : 3c;
 2B6 : 00;
 2B7 : 00;
 2B8 : 66;
 2B9 : 20;
 2BA : 48;
 2BB : 40;
 2BC : 4c;
 2BD : df;
 2BE : 01;
 2BF : 3e;
 2C0 : 4e;
 2C1 : 75;
 2C2 : 48;
 2C3 : e7;
 2C4 : 30;
 2C5 : 00;
 2C6 : 02;
 2C7 : 82;
 2C8 : 00;
 2C9 : 3f;
 2CA : ff;
 2CB : f8;
 2CC : 26;
 2CD : 02;
 2CE : 48;
 2CF : 42;
 2D0 : 42;
 2D1 : 42;
 2D2 : eb;
 2D3 : 8a;
 2D4 : 80;
 2D5 : 82;
 2D6 : e0;
 2D7 : 8b;
 2D8 : e6;
 2D9 : 8b;
 2DA : 82;
 2DB : 83;
 2DC : 4c;
 2DD : df;
 2DE : 00;
 2DF : 0c;
 2E0 : 4e;
 2E1 : 75;
 2E2 : 2f;
 2E3 : 08;
 2E4 : 20;
 2E5 : 7c;
 2E6 : 00;
 2E7 : 00;
 2E8 : 66;
 2E9 : 30;
 2EA : 20;
 2EB : f9;
 2EC : 00;
 2ED : 00;
 2EE : 66;
 2EF : 4a;
 2F0 : 20;
 2F1 : b9;
 2F2 : 00;
 2F3 : 00;
 2F4 : 66;
 2F5 : 4e;
 2F6 : 33;
 2F7 : fc;
 2F8 : 01;
 2F9 : 01;
 2FA : 00;
 2FB : f0;
 2FC : 00;
 2FD : e0;
 2FE : 33;
 2FF : fc;
 300 : 00;
 301 : 00;
 302 : 00;
 303 : f0;
 304 : 00;
 305 : e2;
 306 : 20;
 307 : 5f;
 308 : 4e;
 309 : 73;
 30A : 2f;
 30B : 00;
 30C : 20;
 30D : 39;
 30E : 00;
 30F : f0;
 310 : 22;
 311 : 38;
 312 : 02;
 313 : 40;
 314 : 00;
 315 : 01;
 316 : 67;
 317 : f2;
 318 : 20;
 319 : 3c;
 31A : 00;
 31B : 00;
 31C : 42;
 31D : 20;
 31E : 23;
 31F : c0;
 320 : 00;
 321 : f0;
 322 : 22;
 323 : 04;
 324 : 20;
 325 : 3c;
 326 : 00;
 327 : 01;
 328 : 00;
 329 : 00;
 32A : 23;
 32B : c0;
 32C : 00;
 32D : f0;
 32E : 22;
 32F : 00;
 330 : 30;
 331 : 3c;
 332 : 00;
 333 : 00;
 334 : 48;
 335 : 40;
 336 : 30;
 337 : 3c;
 338 : 00;
 339 : 00;
 33A : 23;
 33B : c0;
 33C : 00;
 33D : f0;
 33E : 22;
 33F : 0c;
 340 : 30;
 341 : 3c;
 342 : 00;
 343 : 00;
 344 : 48;
 345 : 40;
 346 : 30;
 347 : 3c;
 348 : 00;
 349 : 04;
 34A : 23;
 34B : c0;
 34C : 00;
 34D : f0;
 34E : 22;
 34F : 1c;
 350 : 30;
 351 : 3c;
 352 : 00;
 353 : 01;
 354 : 48;
 355 : 40;
 356 : 30;
 357 : 3c;
 358 : fe;
 359 : c0;
 35A : 23;
 35B : c0;
 35C : 00;
 35D : f0;
 35E : 22;
 35F : 10;
 360 : 23;
 361 : fc;
 362 : 00;
 363 : 00;
 364 : 00;
 365 : 00;
 366 : 00;
 367 : f0;
 368 : 22;
 369 : 08;
 36A : 30;
 36B : 3c;
 36C : 00;
 36D : 02;
 36E : 48;
 36F : 40;
 370 : 30;
 371 : 3c;
 372 : 01;
 373 : 40;
 374 : 23;
 375 : c0;
 376 : 00;
 377 : f0;
 378 : 22;
 379 : 3c;
 37A : 20;
 37B : 3c;
 37C : 20;
 37D : a0;
 37E : 20;
 37F : a0;
 380 : 23;
 381 : c0;
 382 : 00;
 383 : f0;
 384 : 22;
 385 : 68;
 386 : 23;
 387 : c0;
 388 : 00;
 389 : f0;
 38A : 22;
 38B : 6c;
 38C : 20;
 38D : 3c;
 38E : 00;
 38F : 01;
 390 : 02;
 391 : 00;
 392 : 23;
 393 : c0;
 394 : 00;
 395 : f0;
 396 : 22;
 397 : 38;
 398 : 20;
 399 : 1f;
 39A : 4e;
 39B : 75;
 39C : 00;
 39D : 00;
 39E : 00;
 39F : 00;
 3A0 : 00;
 3A1 : 00;
 3A2 : 48;
 3A3 : e7;
 3A4 : 80;
 3A5 : c0;
 3A6 : 42;
 3A7 : b9;
 3A8 : 00;
 3A9 : 00;
 3AA : 66;
 3AB : 58;
 3AC : 20;
 3AD : 3c;
 3AE : 00;
 3AF : 00;
 3B0 : 46;
 3B1 : 06;
 3B2 : 90;
 3B3 : bc;
 3B4 : 00;
 3B5 : 00;
 3B6 : 43;
 3B7 : ba;
 3B8 : e4;
 3B9 : 88;
 3BA : 41;
 3BB : f9;
 3BC : 00;
 3BD : 00;
 3BE : 43;
 3BF : ba;
 3C0 : 43;
 3C1 : f9;
 3C2 : 00;
 3C3 : f0;
 3C4 : 31;
 3C5 : 00;
 3C6 : 22;
 3C7 : d8;
 3C8 : 51;
 3C9 : c8;
 3CA : ff;
 3CB : fc;
 3CC : 08;
 3CD : 39;
 3CE : 00;
 3CF : 00;
 3D0 : 00;
 3D1 : f0;
 3D2 : 21;
 3D3 : 14;
 3D4 : 66;
 3D5 : f6;
 3D6 : 23;
 3D7 : fc;
 3D8 : 00;
 3D9 : 00;
 3DA : 00;
 3DB : 20;
 3DC : 00;
 3DD : f0;
 3DE : 3f;
 3DF : d8;
 3E0 : 23;
 3E1 : f9;
 3E2 : 00;
 3E3 : 00;
 3E4 : 66;
 3E5 : 58;
 3E6 : 00;
 3E7 : f0;
 3E8 : 3f;
 3E9 : dc;
 3EA : 23;
 3EB : fc;
 3EC : 00;
 3ED : 00;
 3EE : 46;
 3EF : 08;
 3F0 : 00;
 3F1 : f0;
 3F2 : 3f;
 3F3 : e0;
 3F4 : 23;
 3F5 : fc;
 3F6 : 00;
 3F7 : 00;
 3F8 : 00;
 3F9 : 40;
 3FA : 00;
 3FB : f0;
 3FC : 3f;
 3FD : e4;
 3FE : 23;
 3FF : fc;
 400 : 00;
 401 : 00;
 402 : 00;
 403 : 40;
 404 : 00;
 405 : f0;
 406 : 3f;
 407 : e8;
 408 : 23;
 409 : fc;
 40A : 00;
 40B : 00;
 40C : 30;
 40D : 00;
 40E : 00;
 40F : f0;
 410 : 3f;
 411 : ec;
 412 : 23;
 413 : fc;
 414 : 00;
 415 : 01;
 416 : 00;
 417 : 00;
 418 : 00;
 419 : f0;
 41A : 3f;
 41B : f0;
 41C : 23;
 41D : fc;
 41E : 00;
 41F : 00;
 420 : 00;
 421 : a0;
 422 : 00;
 423 : f0;
 424 : 3f;
 425 : f4;
 426 : 23;
 427 : fc;
 428 : 00;
 429 : 00;
 42A : 00;
 42B : 78;
 42C : 00;
 42D : f0;
 42E : 3f;
 42F : f8;
 430 : 23;
 431 : fc;
 432 : 00;
 433 : 00;
 434 : 42;
 435 : 00;
 436 : 00;
 437 : f0;
 438 : 3f;
 439 : fc;
 43A : 23;
 43B : fc;
 43C : 00;
 43D : f0;
 43E : 31;
 43F : 00;
 440 : 00;
 441 : f0;
 442 : 21;
 443 : 10;
 444 : 23;
 445 : fc;
 446 : 00;
 447 : 00;
 448 : 00;
 449 : 01;
 44A : 00;
 44B : f0;
 44C : 21;
 44D : 14;
 44E : 06;
 44F : b9;
 450 : 00;
 451 : 00;
 452 : 00;
 453 : 01;
 454 : 00;
 455 : 00;
 456 : 66;
 457 : 58;
 458 : 02;
 459 : b9;
 45A : 00;
 45B : 00;
 45C : 07;
 45D : ff;
 45E : 00;
 45F : 00;
 460 : 66;
 461 : 58;
 462 : 60;
 463 : 00;
 464 : ff;
 465 : 68;
 466 : 4c;
 467 : df;
 468 : 03;
 469 : 01;
 46A : 4e;
 46B : 75;
 46C : 8c;
 46D : 2a;
 46E : 62;
 46F : ea;
 470 : 98;
 471 : 0e;
 472 : 80;
 473 : 00;
 474 : 00;
 475 : 00;
 476 : 8d;
 477 : f1;
 478 : 98;
 479 : 12;
 47A : 01;
 47B : fc;
 47C : 00;
 47D : 00;
 47E : 98;
 47F : 13;
 480 : ff;
 481 : ff;
 482 : 00;
 483 : 00;
 484 : 98;
 485 : 16;
 486 : 3f;
 487 : dc;
 488 : 00;
 489 : f0;
 48A : 98;
 48B : 0b;
 48C : d2;
 48D : 00;
 48E : 00;
 48F : f1;
 490 : a6;
 491 : cf;
 492 : 89;
 493 : f0;
 494 : 64;
 495 : 8f;
 496 : 63;
 497 : cf;
 498 : 18;
 499 : 8f;
 49A : 26;
 49B : 4f;
 49C : 26;
 49D : 30;
 49E : ed;
 49F : 6c;
 4A0 : 08;
 4A1 : 8f;
 4A2 : 26;
 4A3 : 4f;
 4A4 : ed;
 4A5 : 77;
 4A6 : 11;
 4A7 : 97;
 4A8 : 6c;
 4A9 : 97;
 4AA : 46;
 4AB : 17;
 4AC : 02;
 4AD : ec;
 4AE : 6c;
 4AF : 2c;
 4B0 : 98;
 4B1 : 16;
 4B2 : 00;
 4B3 : 7c;
 4B4 : 00;
 4B5 : 00;
 4B6 : 02;
 4B7 : cf;
 4B8 : 26;
 4B9 : 4f;
 4BA : ed;
 4BB : 6d;
 4BC : 08;
 4BD : 8f;
 4BE : 26;
 4BF : 4f;
 4C0 : ed;
 4C1 : 77;
 4C2 : 11;
 4C3 : b7;
 4C4 : 6c;
 4C5 : 97;
 4C6 : 46;
 4C7 : 17;
 4C8 : 02;
 4C9 : ed;
 4CA : 6c;
 4CB : 2d;
 4CC : 98;
 4CD : 16;
 4CE : 3f;
 4CF : f4;
 4D0 : 00;
 4D1 : f0;
 4D2 : a6;
 4D3 : c0;
 4D4 : 98;
 4D5 : 16;
 4D6 : 3f;
 4D7 : f8;
 4D8 : 00;
 4D9 : f0;
 4DA : a6;
 4DB : c1;
 4DC : 98;
 4DD : 16;
 4DE : 3f;
 4DF : e4;
 4E0 : 00;
 4E1 : f0;
 4E2 : a6;
 4E3 : c6;
 4E4 : 98;
 4E5 : 16;
 4E6 : 3f;
 4E7 : e8;
 4E8 : 00;
 4E9 : f0;
 4EA : a6;
 4EB : c7;
 4EC : 89;
 4ED : b4;
 4EE : 89;
 4EF : 95;
 4F0 : 58;
 4F1 : 14;
 4F2 : 58;
 4F3 : 15;
 4F4 : 48;
 4F5 : f4;
 4F6 : 50;
 4F7 : d5;
 4F8 : 4c;
 4F9 : 17;
 4FA : 48;
 4FB : f5;
 4FC : 50;
 4FD : d4;
 4FE : 4c;
 4FF : 16;
 500 : 8a;
 501 : e7;
 502 : 8a;
 503 : c6;
 504 : 89;
 505 : d6;
 506 : 64;
 507 : 56;
 508 : 02;
 509 : c7;
 50A : 02;
 50B : c6;
 50C : 6d;
 50D : c7;
 50E : 6d;
 50F : c6;
 510 : 88;
 511 : d4;
 512 : 88;
 513 : f5;
 514 : 6c;
 515 : 34;
 516 : 6c;
 517 : 35;
 518 : 12;
 519 : 80;
 51A : 12;
 51B : a1;
 51C : 4a;
 51D : 8d;
 51E : 52;
 51F : ac;
 520 : 4c;
 521 : 04;
 522 : 63;
 523 : c4;
 524 : 20;
 525 : 14;
 526 : 4a;
 527 : 8c;
 528 : 52;
 529 : ad;
 52A : 4c;
 52B : 05;
 52C : 63;
 52D : c5;
 52E : 20;
 52F : 04;
 530 : 20;
 531 : 05;
 532 : 98;
 533 : 16;
 534 : 3f;
 535 : e4;
 536 : 00;
 537 : f0;
 538 : a6;
 539 : d4;
 53A : 64;
 53B : 34;
 53C : 62;
 53D : 14;
 53E : 98;
 53F : 16;
 540 : 3f;
 541 : e8;
 542 : 00;
 543 : f0;
 544 : a6;
 545 : d5;
 546 : 64;
 547 : 35;
 548 : 62;
 549 : 15;
 54A : 02;
 54B : 84;
 54C : 02;
 54D : a5;
 54E : 98;
 54F : 17;
 550 : 22;
 551 : 38;
 552 : 00;
 553 : f0;
 554 : a6;
 555 : f6;
 556 : 34;
 557 : 16;
 558 : d7;
 559 : a2;
 55A : e4;
 55B : 00;
 55C : 98;
 55D : 16;
 55E : 3f;
 55F : e0;
 560 : 00;
 561 : f0;
 562 : a6;
 563 : d6;
 564 : 98;
 565 : 17;
 566 : 22;
 567 : 00;
 568 : 00;
 569 : f0;
 56A : be;
 56B : f6;
 56C : 98;
 56D : 18;
 56E : 00;
 56F : 00;
 570 : 00;
 571 : 03;
 572 : 98;
 573 : 16;
 574 : 3f;
 575 : d8;
 576 : 00;
 577 : f0;
 578 : a6;
 579 : d6;
 57A : 2a;
 57B : d8;
 57C : 98;
 57D : 16;
 57E : 3f;
 57F : ec;
 580 : 00;
 581 : f0;
 582 : a6;
 583 : d6;
 584 : 2a;
 585 : d8;
 586 : 98;
 587 : 16;
 588 : 22;
 589 : 04;
 58A : 00;
 58B : f0;
 58C : be;
 58D : d8;
 58E : 88;
 58F : b6;
 590 : 66;
 591 : 16;
 592 : 62;
 593 : 16;
 594 : 88;
 595 : 97;
 596 : 66;
 597 : 17;
 598 : 2a;
 599 : f6;
 59A : 98;
 59B : 17;
 59C : 22;
 59D : 0c;
 59E : 00;
 59F : f0;
 5A0 : be;
 5A1 : f6;
 5A2 : 88;
 5A3 : b6;
 5A4 : 62;
 5A5 : 16;
 5A6 : 88;
 5A7 : 97;
 5A8 : 26;
 5A9 : 77;
 5AA : 2a;
 5AB : f6;
 5AC : 98;
 5AD : 17;
 5AE : 22;
 5AF : 18;
 5B0 : 00;
 5B1 : f0;
 5B2 : be;
 5B3 : f6;
 5B4 : 89;
 5B5 : 96;
 5B6 : 20;
 5B7 : 16;
 5B8 : 65;
 5B9 : d6;
 5BA : 26;
 5BB : 76;
 5BC : 62;
 5BD : 16;
 5BE : 89;
 5BF : b7;
 5C0 : 65;
 5C1 : d7;
 5C2 : 26;
 5C3 : 77;
 5C4 : 2a;
 5C5 : f6;
 5C6 : 98;
 5C7 : 17;
 5C8 : 22;
 5C9 : 1c;
 5CA : 00;
 5CB : f0;
 5CC : be;
 5CD : f6;
 5CE : 89;
 5CF : 96;
 5D0 : 20;
 5D1 : 16;
 5D2 : 61;
 5D3 : d6;
 5D4 : 89;
 5D5 : b7;
 5D6 : 63;
 5D7 : d7;
 5D8 : 26;
 5D9 : 77;
 5DA : 2a;
 5DB : f6;
 5DC : 98;
 5DD : 17;
 5DE : 22;
 5DF : 20;
 5E0 : 00;
 5E1 : f0;
 5E2 : be;
 5E3 : f6;
 5E4 : 88;
 5E5 : c2;
 5E6 : 88;
 5E7 : c3;
 5E8 : 20;
 5E9 : 02;
 5EA : 45;
 5EB : a2;
 5EC : 45;
 5ED : 83;
 5EE : 01;
 5EF : 82;
 5F0 : 01;
 5F1 : a3;
 5F2 : 63;
 5F3 : c2;
 5F4 : 63;
 5F5 : c3;
 5F6 : 88;
 5F7 : 76;
 5F8 : 66;
 5F9 : 16;
 5FA : 62;
 5FB : 16;
 5FC : 88;
 5FD : 57;
 5FE : 66;
 5FF : 17;
 600 : 2a;
 601 : f6;
 602 : 98;
 603 : 17;
 604 : 22;
 605 : 10;
 606 : 00;
 607 : f0;
 608 : be;
 609 : f6;
 60A : 88;
 60B : 76;
 60C : 62;
 60D : 16;
 60E : 88;
 60F : 57;
 610 : 62;
 611 : 17;
 612 : 66;
 613 : 17;
 614 : 2a;
 615 : f6;
 616 : 98;
 617 : 17;
 618 : 22;
 619 : 14;
 61A : 00;
 61B : f0;
 61C : be;
 61D : f6;
 61E : 98;
 61F : 16;
 620 : 3f;
 621 : e8;
 622 : 00;
 623 : f0;
 624 : a6;
 625 : d6;
 626 : 62;
 627 : 16;
 628 : 98;
 629 : 17;
 62A : 3f;
 62B : e4;
 62C : 00;
 62D : f0;
 62E : a6;
 62F : f7;
 630 : 2a;
 631 : f6;
 632 : 98;
 633 : 17;
 634 : 22;
 635 : 08;
 636 : 00;
 637 : f0;
 638 : be;
 639 : f6;
 63A : 98;
 63B : 16;
 63C : 3f;
 63D : f0;
 63E : 00;
 63F : f0;
 640 : a6;
 641 : d6;
 642 : 98;
 643 : 17;
 644 : 22;
 645 : 24;
 646 : 00;
 647 : f0;
 648 : be;
 649 : f6;
 64A : 98;
 64B : 18;
 64C : 00;
 64D : 00;
 64E : 00;
 64F : 01;
 650 : 98;
 651 : 16;
 652 : 3f;
 653 : d8;
 654 : 00;
 655 : f0;
 656 : a6;
 657 : d6;
 658 : 2a;
 659 : d8;
 65A : 98;
 65B : 16;
 65C : 3f;
 65D : fc;
 65E : 00;
 65F : f0;
 660 : a6;
 661 : d6;
 662 : 2a;
 663 : d8;
 664 : 98;
 665 : 16;
 666 : 22;
 667 : 28;
 668 : 00;
 669 : f0;
 66A : be;
 66B : d8;
 66C : 8c;
 66D : 36;
 66E : 62;
 66F : 16;
 670 : 88;
 671 : d7;
 672 : 20;
 673 : 17;
 674 : 62;
 675 : 17;
 676 : 66;
 677 : 17;
 678 : 2a;
 679 : f6;
 67A : 98;
 67B : 17;
 67C : 22;
 67D : 34;
 67E : 00;
 67F : f0;
 680 : be;
 681 : f6;
 682 : 88;
 683 : 36;
 684 : 62;
 685 : 16;
 686 : 28;
 687 : 16;
 688 : 98;
 689 : 17;
 68A : 22;
 68B : 30;
 68C : 00;
 68D : f0;
 68E : be;
 68F : f6;
 690 : 88;
 691 : f6;
 692 : 62;
 693 : 16;
 694 : 28;
 695 : d6;
 696 : 98;
 697 : 17;
 698 : 22;
 699 : 3c;
 69A : 00;
 69B : f0;
 69C : be;
 69D : f6;
 69E : 98;
 69F : 16;
 6A0 : 0f;
 6A1 : 41;
 6A2 : 01;
 6A3 : 80;
 6A4 : 98;
 6A5 : 17;
 6A6 : 22;
 6A7 : 38;
 6A8 : 00;
 6A9 : f0;
 6AA : be;
 6AB : f6;
 6AC : 98;
 6AD : 17;
 6AE : 21;
 6AF : 14;
 6B0 : 00;
 6B1 : f0;
 6B2 : 8c;
 6B3 : 16;
 6B4 : be;
 6B5 : f6;
 6B6 : e4;
 6B7 : 00;
 6B8 : 00;
 6B9 : 00;
 6BA : 45;
 6BB : 04;
 6BC : 45;
 6BD : 04;
 6BE : 45;
 6BF : 04;
 6C0 : 23;
 6C1 : 04;
 6C2 : 24;
 6C3 : 03;
 6C4 : 24;
 6C5 : 03;
 6C6 : 24;
 6C7 : 03;
 6C8 : 45;
 6C9 : 02;
 6CA : 45;
 6CB : 02;
 6CC : 45;
 6CD : 02;
 6CE : 45;
 6CF : 02;
 6D0 : 24;
 6D1 : 03;
 6D2 : 24;
 6D3 : 03;
 6D4 : 24;
 6D5 : 03;
 6D6 : 24;
 6D7 : 03;
 6D8 : 24;
 6D9 : 03;
 6DA : 45;
 6DB : 04;
 6DC : 24;
 6DD : 03;
 6DE : 45;
 6DF : 02;
 6E0 : 45;
 6E1 : 04;
 6E2 : 44;
 6E3 : 07;
 6E4 : 45;
 6E5 : 06;
 6E6 : 44;
 6E7 : 05;
 6E8 : 34;
 6E9 : 05;
 6EA : 45;
 6EB : 04;
 6EC : 53;
 6ED : 06;
 6EE : 45;
 6EF : 06;
 6F0 : 45;
 6F1 : 06;
 6F2 : 44;
 6F3 : 05;
 6F4 : 34;
 6F5 : 05;
 6F6 : 45;
 6F7 : 04;
 6F8 : 34;
 6F9 : 05;
 6FA : 45;
 6FB : 04;
 6FC : 55;
 6FD : 07;
 6FE : 54;
 6FF : 07;
 700 : 45;
 701 : 02;
 702 : 70;
 703 : 01;
 704 : 40;
 705 : 02;
 706 : 45;
 707 : 02;
 708 : 42;
 709 : 04;
 70A : 24;
 70B : 03;
 70C : 40;
 70D : 02;
 70E : 45;
 70F : 02;
 710 : 24;
 711 : 03;
 712 : 45;
 713 : 02;
 714 : 45;
 715 : 02;
 716 : 40;
 717 : 02;
 718 : 45;
 719 : 02;
 71A : 53;
 71B : 03;
 71C : 53;
 71D : 03;
 71E : 45;
 71F : 02;
 720 : 45;
 721 : 02;
 722 : 45;
 723 : 02;
 724 : 24;
 725 : 03;
 726 : 45;
 727 : 02;
 728 : 24;
 729 : 03;
 72A : 24;
 72B : 03;
 72C : 53;
 72D : 03;
 72E : 53;
 72F : 03;
 730 : 24;
 731 : 03;
 732 : 33;
 733 : 07;
 734 : 34;
 735 : 09;
 736 : 23;
 737 : 07;
 738 : 13;
 739 : 05;
 73A : 45;
 73B : 04;
 73C : 45;
 73D : 04;
 73E : 45;
 73F : 04;
 740 : 42;
 741 : 04;
 742 : 24;
 743 : 03;
 744 : 24;
 745 : 03;
 746 : 42;
 747 : 04;
 748 : 24;
 749 : 03;
 74A : 45;
 74B : 02;
 74C : 23;
 74D : 04;
 74E : 42;
 74F : 04;
 750 : 42;
 751 : 04;
 752 : 24;
 753 : 03;
 754 : 24;
 755 : 03;
 756 : 53;
 757 : 03;
 758 : 65;
 759 : 05;
 75A : 54;
 75B : 06;
 75C : 45;
 75D : 02;
 75E : 45;
 75F : 02;
 760 : 34;
 761 : 05;
 762 : 44;
 763 : 07;
 764 : 45;
 765 : 06;
 766 : 44;
 767 : 05;
 768 : 45;
 769 : 06;
 76A : 45;
 76B : 06;
 76C : 44;
 76D : 05;
 76E : 54;
 76F : 06;
 770 : 46;
 771 : 05;
 772 : 45;
 773 : 06;
 774 : 44;
 775 : 05;
 776 : 34;
 777 : 05;
 778 : 44;
 779 : 05;
 77A : 34;
 77B : 05;
 77C : 45;
 77D : 04;
 77E : 45;
 77F : 02;
 780 : 40;
 781 : 02;
 782 : 40;
 783 : 02;
 784 : 40;
 785 : 02;
 786 : 45;
 787 : 02;
 788 : 40;
 789 : 02;
 78A : 40;
 78B : 02;
 78C : 40;
 78D : 02;
 78E : 45;
 78F : 02;
 790 : 45;
 791 : 02;
 792 : 45;
 793 : 02;
 794 : 40;
 795 : 02;
 796 : 70;
 797 : 01;
 798 : 45;
 799 : 02;
 79A : 24;
 79B : 03;
 79C : 45;
 79D : 02;
 79E : 45;
 79F : 02;
 7A0 : 45;
 7A1 : 02;
 7A2 : 24;
 7A3 : 03;
 7A4 : 53;
 7A5 : 03;
 7A6 : 24;
 7A7 : 03;
 7A8 : 24;
 7A9 : 03;
 7AA : 56;
 7AB : 03;
 7AC : 24;
 7AD : 03;
 7AE : 45;
 7AF : 02;
 7B0 : 45;
 7B1 : 02;
 7B2 : 42;
 7B3 : 04;
 7B4 : 42;
 7B5 : 04;
 7B6 : 13;
 7B7 : 05;
 7B8 : 23;
 7B9 : 04;
 7BA : 45;
 7BB : 04;
 7BC : 45;
 7BD : 04;
 7BE : 45;
 7BF : 04;
 7C0 : 42;
 7C1 : 04;
 7C2 : 24;
 7C3 : 03;
 7C4 : 53;
 7C5 : 03;
 7C6 : 23;
 7C7 : 04;
 7C8 : 24;
 7C9 : 03;
 7CA : 53;
 7CB : 03;
 7CC : 34;
 7CD : 05;
 7CE : 42;
 7CF : 04;
 7D0 : 24;
 7D1 : 03;
 7D2 : 42;
 7D3 : 04;
 7D4 : 42;
 7D5 : 04;
 7D6 : 85;
 7D7 : 09;
 7D8 : 97;
 7D9 : 19;
 7DA : 86;
 7DB : 10;
 7DC : 74;
 7DD : 02;
 7DE : 24;
 7DF : 03;
 7E0 : 34;
 7E1 : 05;
 7E2 : 46;
 7E3 : 05;
 7E4 : 45;
 7E5 : 06;
 7E6 : 45;
 7E7 : 06;
 7E8 : 45;
 7E9 : 06;
 7EA : 46;
 7EB : 07;
 7EC : 54;
 7ED : 06;
 7EE : 44;
 7EF : 05;
 7F0 : 34;
 7F1 : 05;
 7F2 : 44;
 7F3 : 05;
 7F4 : 42;
 7F5 : 04;
 7F6 : 45;
 7F7 : 04;
 7F8 : 23;
 7F9 : 04;
 7FA : 45;
 7FB : 04;
 7FC : 43;
 7FD : 06;
 7FE : 42;
 7FF : 04;
 800 : 40;
 801 : 02;
 802 : 40;
 803 : 02;
 804 : 70;
 805 : 01;
 806 : 45;
 807 : 02;
 808 : 40;
 809 : 02;
 80A : 40;
 80B : 02;
 80C : 45;
 80D : 02;
 80E : 45;
 80F : 02;
 810 : 24;
 811 : 03;
 812 : 45;
 813 : 02;
 814 : 24;
 815 : 03;
 816 : 45;
 817 : 02;
 818 : 45;
 819 : 02;
 81A : 45;
 81B : 02;
 81C : 45;
 81D : 02;
 81E : 45;
 81F : 02;
 820 : 45;
 821 : 02;
 822 : 45;
 823 : 02;
 824 : 45;
 825 : 02;
 826 : 45;
 827 : 02;
 828 : 24;
 829 : 03;
 82A : 24;
 82B : 03;
 82C : 24;
 82D : 03;
 82E : 45;
 82F : 02;
 830 : 45;
 831 : 02;
 832 : 24;
 833 : 03;
 834 : 24;
 835 : 03;
 836 : 23;
 837 : 04;
 838 : 23;
 839 : 04;
 83A : 45;
 83B : 04;
 83C : 45;
 83D : 04;
 83E : 45;
 83F : 04;
 840 : 42;
 841 : 04;
 842 : 23;
 843 : 04;
 844 : 24;
 845 : 03;
 846 : 24;
 847 : 03;
 848 : 42;
 849 : 04;
 84A : 45;
 84B : 04;
 84C : 54;
 84D : 06;
 84E : 43;
 84F : 06;
 850 : 44;
 851 : 05;
 852 : 45;
 853 : 04;
 854 : 42;
 855 : 04;
 856 : 75;
 857 : 08;
 858 : 98;
 859 : 20;
 85A : b7;
 85B : 3a;
 85C : 95;
 85D : 0b;
 85E : 34;
 85F : 05;
 860 : 34;
 861 : 05;
 862 : 44;
 863 : 05;
 864 : 45;
 865 : 06;
 866 : 44;
 867 : 07;
 868 : 45;
 869 : 06;
 86A : 34;
 86B : 05;
 86C : 34;
 86D : 05;
 86E : 65;
 86F : 05;
 870 : 62;
 871 : 04;
 872 : 42;
 873 : 04;
 874 : 24;
 875 : 03;
 876 : 42;
 877 : 04;
 878 : 73;
 879 : 03;
 87A : 70;
 87B : 01;
 87C : 42;
 87D : 04;
 87E : 24;
 87F : 03;
 880 : 45;
 881 : 02;
 882 : 70;
 883 : 01;
 884 : 40;
 885 : 02;
 886 : 70;
 887 : 01;
 888 : 45;
 889 : 02;
 88A : 40;
 88B : 02;
 88C : 70;
 88D : 01;
 88E : 45;
 88F : 02;
 890 : 45;
 891 : 02;
 892 : 40;
 893 : 02;
 894 : 42;
 895 : 04;
 896 : 24;
 897 : 03;
 898 : 70;
 899 : 01;
 89A : 45;
 89B : 02;
 89C : 45;
 89D : 02;
 89E : 45;
 89F : 02;
 8A0 : 45;
 8A1 : 02;
 8A2 : 45;
 8A3 : 02;
 8A4 : 45;
 8A5 : 02;
 8A6 : 45;
 8A7 : 02;
 8A8 : 45;
 8A9 : 02;
 8AA : 24;
 8AB : 03;
 8AC : 53;
 8AD : 03;
 8AE : 45;
 8AF : 02;
 8B0 : 45;
 8B1 : 02;
 8B2 : 24;
 8B3 : 03;
 8B4 : 23;
 8B5 : 04;
 8B6 : 23;
 8B7 : 04;
 8B8 : 23;
 8B9 : 04;
 8BA : 45;
 8BB : 04;
 8BC : 45;
 8BD : 04;
 8BE : 45;
 8BF : 04;
 8C0 : 24;
 8C1 : 03;
 8C2 : 42;
 8C3 : 04;
 8C4 : 24;
 8C5 : 03;
 8C6 : 24;
 8C7 : 03;
 8C8 : 45;
 8C9 : 04;
 8CA : 46;
 8CB : 07;
 8CC : 36;
 8CD : 09;
 8CE : 45;
 8CF : 0a;
 8D0 : 44;
 8D1 : 09;
 8D2 : 46;
 8D3 : 05;
 8D4 : 45;
 8D5 : 04;
 8D6 : 44;
 8D7 : 05;
 8D8 : 85;
 8D9 : 0c;
 8DA : b4;
 8DB : 25;
 8DC : 94;
 8DD : 0d;
 8DE : 46;
 8DF : 07;
 8E0 : 35;
 8E1 : 07;
 8E2 : 45;
 8E3 : 06;
 8E4 : 54;
 8E5 : 06;
 8E6 : 44;
 8E7 : 05;
 8E8 : 53;
 8E9 : 03;
 8EA : 74;
 8EB : 04;
 8EC : c4;
 8ED : 11;
 8EE : a3;
 8EF : 0d;
 8F0 : 64;
 8F1 : 04;
 8F2 : 42;
 8F3 : 04;
 8F4 : 42;
 8F5 : 04;
 8F6 : 42;
 8F7 : 04;
 8F8 : 93;
 8F9 : 06;
 8FA : 94;
 8FB : 04;
 8FC : 74;
 8FD : 02;
 8FE : b4;
 8FF : 07;
 900 : 73;
 901 : 03;
 902 : 45;
 903 : 02;
 904 : 45;
 905 : 02;
 906 : 45;
 907 : 02;
 908 : 45;
 909 : 02;
 90A : 24;
 90B : 03;
 90C : 45;
 90D : 02;
 90E : 70;
 90F : 01;
 910 : 40;
 911 : 02;
 912 : 70;
 913 : 01;
 914 : 45;
 915 : 04;
 916 : 45;
 917 : 04;
 918 : 40;
 919 : 02;
 91A : 45;
 91B : 02;
 91C : 40;
 91D : 02;
 91E : 45;
 91F : 02;
 920 : 23;
 921 : 04;
 922 : 45;
 923 : 02;
 924 : 45;
 925 : 02;
 926 : 45;
 927 : 02;
 928 : 24;
 929 : 03;
 92A : 45;
 92B : 02;
 92C : 24;
 92D : 03;
 92E : 45;
 92F : 04;
 930 : 45;
 931 : 02;
 932 : 45;
 933 : 02;
 934 : 23;
 935 : 04;
 936 : 23;
 937 : 04;
 938 : 42;
 939 : 05;
 93A : 45;
 93B : 04;
 93C : 42;
 93D : 04;
 93E : 45;
 93F : 04;
 940 : 64;
 941 : 04;
 942 : 42;
 943 : 04;
 944 : 24;
 945 : 03;
 946 : 24;
 947 : 03;
 948 : 24;
 949 : 03;
 94A : 45;
 94B : 06;
 94C : 45;
 94D : 09;
 94E : 45;
 94F : 09;
 950 : 45;
 951 : 09;
 952 : 46;
 953 : 07;
 954 : 46;
 955 : 07;
 956 : 46;
 957 : 07;
 958 : 55;
 959 : 07;
 95A : 53;
 95B : 06;
 95C : 54;
 95D : 06;
 95E : 45;
 95F : 08;
 960 : 46;
 961 : 07;
 962 : 34;
 963 : 05;
 964 : 74;
 965 : 04;
 966 : 74;
 967 : 04;
 968 : a4;
 969 : 09;
 96A : c3;
 96B : 15;
 96C : b4;
 96D : 0b;
 96E : 64;
 96F : 04;
 970 : 45;
 971 : 02;
 972 : 45;
 973 : 02;
 974 : 53;
 975 : 03;
 976 : b5;
 977 : 0d;
 978 : c4;
 979 : 1e;
 97A : a4;
 97B : 08;
 97C : 45;
 97D : 02;
 97E : a3;
 97F : 06;
 980 : 53;
 981 : 03;
 982 : 64;
 983 : 04;
 984 : 24;
 985 : 03;
 986 : 24;
 987 : 03;
 988 : 74;
 989 : 02;
 98A : 42;
 98B : 04;
 98C : 24;
 98D : 03;
 98E : 70;
 98F : 01;
 990 : 40;
 991 : 02;
 992 : 70;
 993 : 01;
 994 : 42;
 995 : 04;
 996 : 43;
 997 : 06;
 998 : 45;
 999 : 02;
 99A : 70;
 99B : 01;
 99C : 40;
 99D : 02;
 99E : 45;
 99F : 02;
 9A0 : 45;
 9A1 : 02;
 9A2 : 45;
 9A3 : 02;
 9A4 : 45;
 9A5 : 02;
 9A6 : 45;
 9A7 : 02;
 9A8 : 24;
 9A9 : 03;
 9AA : 45;
 9AB : 02;
 9AC : 24;
 9AD : 03;
 9AE : 45;
 9AF : 04;
 9B0 : 24;
 9B1 : 03;
 9B2 : 45;
 9B3 : 02;
 9B4 : 24;
 9B5 : 03;
 9B6 : 23;
 9B7 : 04;
 9B8 : 32;
 9B9 : 05;
 9BA : 45;
 9BB : 04;
 9BC : 45;
 9BD : 04;
 9BE : 44;
 9BF : 0b;
 9C0 : 54;
 9C1 : 0d;
 9C2 : 54;
 9C3 : 09;
 9C4 : 45;
 9C5 : 04;
 9C6 : 24;
 9C7 : 03;
 9C8 : 24;
 9C9 : 03;
 9CA : 65;
 9CB : 05;
 9CC : 46;
 9CD : 0a;
 9CE : 56;
 9CF : 09;
 9D0 : 45;
 9D1 : 09;
 9D2 : 44;
 9D3 : 09;
 9D4 : 45;
 9D5 : 09;
 9D6 : 54;
 9D7 : 0a;
 9D8 : 45;
 9D9 : 09;
 9DA : 45;
 9DB : 08;
 9DC : 46;
 9DD : 07;
 9DE : 44;
 9DF : 05;
 9E0 : 24;
 9E1 : 03;
 9E2 : 40;
 9E3 : 02;
 9E4 : 74;
 9E5 : 02;
 9E6 : 93;
 9E7 : 05;
 9E8 : a3;
 9E9 : 0d;
 9EA : 93;
 9EB : 05;
 9EC : 40;
 9ED : 02;
 9EE : a3;
 9EF : 06;
 9F0 : d4;
 9F1 : 1a;
 9F2 : d4;
 9F3 : 36;
 9F4 : d4;
 9F5 : 28;
 9F6 : a3;
 9F7 : 0b;
 9F8 : c4;
 9F9 : 12;
 9FA : 94;
 9FB : 08;
 9FC : 62;
 9FD : 04;
 9FE : a4;
 9FF : 09;
 A00 : 42;
 A01 : 04;
 A02 : a4;
 A03 : 09;
 A04 : b4;
 A05 : 15;
 A06 : 94;
 A07 : 08;
 A08 : 53;
 A09 : 03;
 A0A : 42;
 A0B : 04;
 A0C : 24;
 A0D : 03;
 A0E : 40;
 A0F : 02;
 A10 : 40;
 A11 : 02;
 A12 : 45;
 A13 : 02;
 A14 : 24;
 A15 : 03;
 A16 : 23;
 A17 : 04;
 A18 : 24;
 A19 : 03;
 A1A : 45;
 A1B : 02;
 A1C : 45;
 A1D : 02;
 A1E : 45;
 A1F : 02;
 A20 : 45;
 A21 : 02;
 A22 : 45;
 A23 : 02;
 A24 : 45;
 A25 : 02;
 A26 : 45;
 A27 : 02;
 A28 : 24;
 A29 : 03;
 A2A : 45;
 A2B : 04;
 A2C : 53;
 A2D : 03;
 A2E : 24;
 A2F : 03;
 A30 : 45;
 A31 : 02;
 A32 : 45;
 A33 : 02;
 A34 : 24;
 A35 : 03;
 A36 : 23;
 A37 : 04;
 A38 : 22;
 A39 : 06;
 A3A : 45;
 A3B : 04;
 A3C : 45;
 A3D : 06;
 A3E : 54;
 A3F : 13;
 A40 : 54;
 A41 : 15;
 A42 : 64;
 A43 : 10;
 A44 : 73;
 A45 : 09;
 A46 : 64;
 A47 : 04;
 A48 : 45;
 A49 : 02;
 A4A : 45;
 A4B : 04;
 A4C : 56;
 A4D : 09;
 A4E : 55;
 A4F : 0b;
 A50 : 55;
 A51 : 0b;
 A52 : 55;
 A53 : 09;
 A54 : 55;
 A55 : 0b;
 A56 : 55;
 A57 : 0b;
 A58 : 55;
 A59 : 09;
 A5A : 46;
 A5B : 0a;
 A5C : 44;
 A5D : 07;
 A5E : 45;
 A5F : 02;
 A60 : 40;
 A61 : 02;
 A62 : 53;
 A63 : 03;
 A64 : 74;
 A65 : 04;
 A66 : 74;
 A67 : 04;
 A68 : 42;
 A69 : 04;
 A6A : 40;
 A6B : 02;
 A6C : b4;
 A6D : 0b;
 A6E : b4;
 A6F : 10;
 A70 : b3;
 A71 : 0c;
 A72 : c4;
 A73 : 20;
 A74 : c4;
 A75 : 35;
 A76 : c4;
 A77 : 21;
 A78 : c5;
 A79 : 10;
 A7A : 62;
 A7B : 04;
 A7C : 62;
 A7D : 04;
 A7E : 74;
 A7F : 06;
 A80 : 63;
 A81 : 05;
 A82 : 24;
 A83 : 03;
 A84 : a3;
 A85 : 0b;
 A86 : a4;
 A87 : 0e;
 A88 : 53;
 A89 : 03;
 A8A : 42;
 A8B : 04;
 A8C : a4;
 A8D : 07;
 A8E : 93;
 A8F : 05;
 A90 : 53;
 A91 : 03;
 A92 : 45;
 A93 : 02;
 A94 : 45;
 A95 : 02;
 A96 : 45;
 A97 : 02;
 A98 : 45;
 A99 : 02;
 A9A : 45;
 A9B : 02;
 A9C : 45;
 A9D : 02;
 A9E : 24;
 A9F : 03;
 AA0 : 45;
 AA1 : 02;
 AA2 : 45;
 AA3 : 02;
 AA4 : 45;
 AA5 : 02;
 AA6 : 45;
 AA7 : 02;
 AA8 : 24;
 AA9 : 03;
 AAA : 45;
 AAB : 04;
 AAC : 24;
 AAD : 03;
 AAE : 24;
 AAF : 03;
 AB0 : 24;
 AB1 : 03;
 AB2 : 45;
 AB3 : 02;
 AB4 : 24;
 AB5 : 03;
 AB6 : 23;
 AB7 : 04;
 AB8 : 32;
 AB9 : 05;
 ABA : 45;
 ABB : 04;
 ABC : 44;
 ABD : 09;
 ABE : 54;
 ABF : 18;
 AC0 : 54;
 AC1 : 19;
 AC2 : 54;
 AC3 : 14;
 AC4 : 65;
 AC5 : 10;
 AC6 : 64;
 AC7 : 08;
 AC8 : 74;
 AC9 : 04;
 ACA : 53;
 ACB : 03;
 ACC : 24;
 ACD : 03;
 ACE : 64;
 ACF : 04;
 AD0 : 46;
 AD1 : 07;
 AD2 : 56;
 AD3 : 09;
 AD4 : 56;
 AD5 : 0b;
 AD6 : 45;
 AD7 : 0c;
 AD8 : 56;
 AD9 : 09;
 ADA : 26;
 ADB : 06;
 ADC : 53;
 ADD : 03;
 ADE : 45;
 ADF : 02;
 AE0 : 53;
 AE1 : 03;
 AE2 : 73;
 AE3 : 05;
 AE4 : 53;
 AE5 : 03;
 AE6 : b4;
 AE7 : 05;
 AE8 : a3;
 AE9 : 06;
 AEA : c3;
 AEB : 0d;
 AEC : b4;
 AED : 0a;
 AEE : 00;
 AEF : 02;
 AF0 : 93;
 AF1 : 05;
 AF2 : c4;
 AF3 : 2c;
 AF4 : d5;
 AF5 : 52;
 AF6 : d5;
 AF7 : 32;
 AF8 : b4;
 AF9 : 19;
 AFA : 42;
 AFB : 04;
 AFC : 53;
 AFD : 06;
 AFE : a4;
 AFF : 0f;
 B00 : c4;
 B01 : 20;
 B02 : b4;
 B03 : 0d;
 B04 : 73;
 B05 : 05;
 B06 : 83;
 B07 : 07;
 B08 : 94;
 B09 : 08;
 B0A : 74;
 B0B : 07;
 B0C : c4;
 B0D : 1f;
 B0E : d4;
 B0F : 31;
 B10 : a4;
 B11 : 07;
 B12 : 40;
 B13 : 02;
 B14 : 40;
 B15 : 02;
 B16 : 40;
 B17 : 02;
 B18 : 45;
 B19 : 02;
 B1A : 24;
 B1B : 03;
 B1C : 45;
 B1D : 02;
 B1E : 45;
 B1F : 02;
 B20 : 45;
 B21 : 02;
 B22 : 45;
 B23 : 02;
 B24 : 45;
 B25 : 02;
 B26 : 45;
 B27 : 02;
 B28 : 24;
 B29 : 03;
 B2A : 42;
 B2B : 04;
 B2C : 24;
 B2D : 03;
 B2E : 45;
 B2F : 02;
 B30 : 42;
 B31 : 04;
 B32 : 23;
 B33 : 04;
 B34 : 24;
 B35 : 03;
 B36 : 23;
 B37 : 04;
 B38 : 23;
 B39 : 04;
 B3A : 34;
 B3B : 05;
 B3C : 55;
 B3D : 09;
 B3E : 54;
 B3F : 1d;
 B40 : 44;
 B41 : 17;
 B42 : 54;
 B43 : 12;
 B44 : 54;
 B45 : 10;
 B46 : 65;
 B47 : 0c;
 B48 : 73;
 B49 : 09;
 B4A : 74;
 B4B : 06;
 B4C : 42;
 B4D : 04;
 B4E : 45;
 B4F : 02;
 B50 : 45;
 B51 : 02;
 B52 : 45;
 B53 : 04;
 B54 : 55;
 B55 : 07;
 B56 : 65;
 B57 : 08;
 B58 : 42;
 B59 : 04;
 B5A : 40;
 B5B : 02;
 B5C : 53;
 B5D : 03;
 B5E : 73;
 B5F : 03;
 B60 : 53;
 B61 : 03;
 B62 : 53;
 B63 : 03;
 B64 : 45;
 B65 : 02;
 B66 : d4;
 B67 : 23;
 B68 : c4;
 B69 : 1c;
 B6A : c4;
 B6B : 1b;
 B6C : b3;
 B6D : 09;
 B6E : b4;
 B6F : 09;
 B70 : d4;
 B71 : 36;
 B72 : c4;
 B73 : 27;
 B74 : c4;
 B75 : 20;
 B76 : 42;
 B77 : 04;
 B78 : 92;
 B79 : 05;
 B7A : 74;
 B7B : 04;
 B7C : b4;
 B7D : 10;
 B7E : b4;
 B7F : 0d;
 B80 : 93;
 B81 : 05;
 B82 : b4;
 B83 : 0d;
 B84 : c4;
 B85 : 13;
 B86 : c4;
 B87 : 1f;
 B88 : b4;
 B89 : 17;
 B8A : 53;
 B8B : 06;
 B8C : 75;
 B8D : 05;
 B8E : b3;
 B8F : 0e;
 B90 : 93;
 B91 : 05;
 B92 : 24;
 B93 : 03;
 B94 : 45;
 B95 : 02;
 B96 : 53;
 B97 : 03;
 B98 : 45;
 B99 : 02;
 B9A : 53;
 B9B : 03;
 B9C : 24;
 B9D : 03;
 B9E : 24;
 B9F : 03;
 BA0 : 24;
 BA1 : 03;
 BA2 : 45;
 BA3 : 02;
 BA4 : 45;
 BA5 : 02;
 BA6 : 45;
 BA7 : 02;
 BA8 : 45;
 BA9 : 02;
 BAA : 42;
 BAB : 04;
 BAC : 53;
 BAD : 03;
 BAE : 45;
 BAF : 02;
 BB0 : 45;
 BB1 : 02;
 BB2 : 23;
 BB3 : 04;
 BB4 : 32;
 BB5 : 05;
 BB6 : 23;
 BB7 : 04;
 BB8 : 23;
 BB9 : 04;
 BBA : 44;
 BBB : 05;
 BBC : 44;
 BBD : 07;
 BBE : 45;
 BBF : 17;
 BC0 : 44;
 BC1 : 17;
 BC2 : 54;
 BC3 : 11;
 BC4 : 45;
 BC5 : 0c;
 BC6 : 55;
 BC7 : 0f;
 BC8 : 64;
 BC9 : 0b;
 BCA : 65;
 BCB : 07;
 BCC : 64;
 BCD : 06;
 BCE : 64;
 BCF : 04;
 BD0 : 73;
 BD1 : 03;
 BD2 : 74;
 BD3 : 04;
 BD4 : 42;
 BD5 : 04;
 BD6 : 93;
 BD7 : 05;
 BD8 : 53;
 BD9 : 03;
 BDA : 45;
 BDB : 02;
 BDC : 62;
 BDD : 04;
 BDE : a3;
 BDF : 0c;
 BE0 : 73;
 BE1 : 03;
 BE2 : 00;
 BE3 : 01;
 BE4 : 73;
 BE5 : 03;
 BE6 : 94;
 BE7 : 06;
 BE8 : 64;
 BE9 : 04;
 BEA : 62;
 BEB : 04;
 BEC : 53;
 BED : 03;
 BEE : d4;
 BEF : 28;
 BF0 : c4;
 BF1 : 1e;
 BF2 : 00;
 BF3 : 02;
 BF4 : 45;
 BF5 : 02;
 BF6 : b4;
 BF7 : 14;
 BF8 : d4;
 BF9 : 52;
 BFA : d5;
 BFB : 58;
 BFC : d5;
 BFD : 2a;
 BFE : d5;
 BFF : 3c;
 C00 : d5;
 C01 : 27;
 C02 : d4;
 C03 : 1a;
 C04 : c4;
 C05 : 0b;
 C06 : 92;
 C07 : 04;
 C08 : b4;
 C09 : 0c;
 C0A : a4;
 C0B : 07;
 C0C : 64;
 C0D : 04;
 C0E : c4;
 C0F : 17;
 C10 : d5;
 C11 : 2a;
 C12 : c4;
 C13 : 14;
 C14 : c4;
 C15 : 14;
 C16 : c5;
 C17 : 15;
 C18 : 00;
 C19 : 01;
 C1A : 53;
 C1B : 03;
 C1C : 45;
 C1D : 02;
 C1E : 24;
 C1F : 03;
 C20 : 23;
 C21 : 04;
 C22 : 24;
 C23 : 03;
 C24 : 45;
 C25 : 02;
 C26 : 45;
 C27 : 02;
 C28 : 45;
 C29 : 02;
 C2A : 56;
 C2B : 03;
 C2C : 34;
 C2D : 05;
 C2E : 24;
 C2F : 03;
 C30 : 45;
 C31 : 02;
 C32 : 40;
 C33 : 02;
 C34 : 23;
 C35 : 04;
 C36 : 13;
 C37 : 05;
 C38 : 62;
 C39 : 04;
 C3A : 44;
 C3B : 05;
 C3C : 45;
 C3D : 06;
 C3E : 55;
 C3F : 11;
 C40 : 54;
 C41 : 17;
 C42 : 44;
 C43 : 0d;
 C44 : 44;
 C45 : 0b;
 C46 : 55;
 C47 : 15;
 C48 : 74;
 C49 : 10;
 C4A : 84;
 C4B : 0d;
 C4C : 74;
 C4D : 09;
 C4E : 84;
 C4F : 08;
 C50 : c3;
 C51 : 14;
 C52 : c3;
 C53 : 1f;
 C54 : a4;
 C55 : 09;
 C56 : a3;
 C57 : 09;
 C58 : 73;
 C59 : 05;
 C5A : 62;
 C5B : 04;
 C5C : a4;
 C5D : 07;
 C5E : b3;
 C5F : 13;
 C60 : b4;
 C61 : 09;
 C62 : a4;
 C63 : 07;
 C64 : 93;
 C65 : 08;
 C66 : a3;
 C67 : 06;
 C68 : c4;
 C69 : 10;
 C6A : 62;
 C6B : 04;
 C6C : d4;
 C6D : 19;
 C6E : d4;
 C6F : 3f;
 C70 : b3;
 C71 : 16;
 C72 : 42;
 C73 : 04;
 C74 : 24;
 C75 : 03;
 C76 : c4;
 C77 : 14;
 C78 : d5;
 C79 : 64;
 C7A : d5;
 C7B : 54;
 C7C : 53;
 C7D : 03;
 C7E : 74;
 C7F : 04;
 C80 : a4;
 C81 : 06;
 C82 : d4;
 C83 : 1e;
 C84 : d4;
 C85 : 15;
 C86 : c4;
 C87 : 0b;
 C88 : c4;
 C89 : 1b;
 C8A : c5;
 C8B : 23;
 C8C : c4;
 C8D : 21;
 C8E : d5;
 C8F : 52;
 C90 : c5;
 C91 : 3c;
 C92 : d5;
 C93 : 55;
 C94 : c4;
 C95 : 1b;
 C96 : d4;
 C97 : 29;
 C98 : b4;
 C99 : 07;
 C9A : 00;
 C9B : 02;
 C9C : 45;
 C9D : 02;
 C9E : 45;
 C9F : 02;
 CA0 : 24;
 CA1 : 03;
 CA2 : 24;
 CA3 : 03;
 CA4 : 45;
 CA5 : 02;
 CA6 : 45;
 CA7 : 02;
 CA8 : 53;
 CA9 : 03;
 CAA : 45;
 CAB : 02;
 CAC : 24;
 CAD : 03;
 CAE : 00;
 CAF : 02;
 CB0 : 45;
 CB1 : 02;
 CB2 : 74;
 CB3 : 04;
 CB4 : 53;
 CB5 : 06;
 CB6 : 23;
 CB7 : 04;
 CB8 : 44;
 CB9 : 05;
 CBA : 43;
 CBB : 06;
 CBC : 44;
 CBD : 05;
 CBE : 45;
 CBF : 0a;
 CC0 : 54;
 CC1 : 1c;
 CC2 : 44;
 CC3 : 15;
 CC4 : 54;
 CC5 : 0f;
 CC6 : 54;
 CC7 : 15;
 CC8 : 75;
 CC9 : 11;
 CCA : 85;
 CCB : 11;
 CCC : 75;
 CCD : 10;
 CCE : 74;
 CCF : 0b;
 CD0 : a3;
 CD1 : 0d;
 CD2 : c4;
 CD3 : 1a;
 CD4 : c4;
 CD5 : 1b;
 CD6 : c3;
 CD7 : 18;
 CD8 : 94;
 CD9 : 09;
 CDA : 83;
 CDB : 07;
 CDC : 93;
 CDD : 05;
 CDE : a3;
 CDF : 0b;
 CE0 : c4;
 CE1 : 20;
 CE2 : b3;
 CE3 : 0d;
 CE4 : a3;
 CE5 : 06;
 CE6 : d4;
 CE7 : 25;
 CE8 : c4;
 CE9 : 1c;
 CEA : b4;
 CEB : 0d;
 CEC : c3;
 CED : 1d;
 CEE : d5;
 CEF : 36;
 CF0 : a3;
 CF1 : 09;
 CF2 : 45;
 CF3 : 02;
 CF4 : 74;
 CF5 : 02;
 CF6 : a3;
 CF7 : 08;
 CF8 : b4;
 CF9 : 09;
 CFA : c4;
 CFB : 0b;
 CFC : d4;
 CFD : 35;
 CFE : d5;
 CFF : 37;
 D00 : b4;
 D01 : 05;
 D02 : a3;
 D03 : 06;
 D04 : d4;
 D05 : 22;
 D06 : c4;
 D07 : 0c;
 D08 : 53;
 D09 : 03;
 D0A : 00;
 D0B : 02;
 D0C : 62;
 D0D : 04;
 D0E : c5;
 D0F : 21;
 D10 : c5;
 D11 : 5e;
 D12 : b5;
 D13 : 10;
 D14 : a4;
 D15 : 09;
 D16 : c4;
 D17 : 09;
 D18 : d5;
 D19 : 27;
 D1A : c4;
 D1B : 0b;
 D1C : 45;
 D1D : 02;
 D1E : 45;
 D1F : 02;
 D20 : 24;
 D21 : 03;
 D22 : 45;
 D23 : 02;
 D24 : 45;
 D25 : 02;
 D26 : 53;
 D27 : 03;
 D28 : 45;
 D29 : 02;
 D2A : 00;
 D2B : 01;
 D2C : 45;
 D2D : 02;
 D2E : c5;
 D2F : 0b;
 D30 : c5;
 D31 : 2a;
 D32 : b6;
 D33 : 4d;
 D34 : a6;
 D35 : 36;
 D36 : 54;
 D37 : 07;
 D38 : 23;
 D39 : 04;
 D3A : 44;
 D3B : 07;
 D3C : 46;
 D3D : 05;
 D3E : 46;
 D3F : 05;
 D40 : 44;
 D41 : 10;
 D42 : 64;
 D43 : 1c;
 D44 : 54;
 D45 : 13;
 D46 : 43;
 D47 : 0e;
 D48 : 74;
 D49 : 0d;
 D4A : 85;
 D4B : 18;
 D4C : 85;
 D4D : 1d;
 D4E : a5;
 D4F : 1a;
 D50 : 95;
 D51 : 0d;
 D52 : a4;
 D53 : 0d;
 D54 : c4;
 D55 : 11;
 D56 : a3;
 D57 : 0b;
 D58 : 93;
 D59 : 0b;
 D5A : a4;
 D5B : 0a;
 D5C : 74;
 D5D : 04;
 D5E : b4;
 D5F : 11;
 D60 : b4;
 D61 : 15;
 D62 : a3;
 D63 : 09;
 D64 : c4;
 D65 : 13;
 D66 : c4;
 D67 : 19;
 D68 : 74;
 D69 : 04;
 D6A : 95;
 D6B : 07;
 D6C : b4;
 D6D : 0f;
 D6E : c5;
 D6F : 1e;
 D70 : b5;
 D71 : 17;
 D72 : b4;
 D73 : 10;
 D74 : 73;
 D75 : 03;
 D76 : 00;
 D77 : 01;
 D78 : a3;
 D79 : 03;
 D7A : d4;
 D7B : 18;
 D7C : d4;
 D7D : 5b;
 D7E : d5;
 D7F : 85;
 D80 : e5;
 D81 : 7e;
 D82 : d4;
 D83 : 58;
 D84 : d4;
 D85 : 3f;
 D86 : b3;
 D87 : 07;
 D88 : b4;
 D89 : 08;
 D8A : c4;
 D8B : 0b;
 D8C : d5;
 D8D : 1b;
 D8E : d5;
 D8F : 72;
 D90 : d5;
 D91 : 7a;
 D92 : c4;
 D93 : 0e;
 D94 : 62;
 D95 : 04;
 D96 : d4;
 D97 : 12;
 D98 : c3;
 D99 : 15;
 D9A : d5;
 D9B : 34;
 D9C : c4;
 D9D : 14;
 D9E : 74;
 D9F : 04;
 DA0 : 24;
 DA1 : 03;
 DA2 : 45;
 DA3 : 02;
 DA4 : 64;
 DA5 : 04;
 DA6 : 45;
 DA7 : 02;
 DA8 : b5;
 DA9 : 04;
 DAA : a5;
 DAB : 09;
 DAC : b5;
 DAD : 1b;
 DAE : c6;
 DAF : 4a;
 DB0 : b6;
 DB1 : 6a;
 DB2 : 96;
 DB3 : 86;
 DB4 : 96;
 DB5 : 7a;
 DB6 : 53;
 DB7 : 0d;
 DB8 : 23;
 DB9 : 04;
 DBA : 45;
 DBB : 06;
 DBC : 46;
 DBD : 05;
 DBE : 45;
 DBF : 06;
 DC0 : 44;
 DC1 : 05;
 DC2 : 54;
 DC3 : 10;
 DC4 : 54;
 DC5 : 15;
 DC6 : 54;
 DC7 : 0e;
 DC8 : 54;
 DC9 : 0b;
 DCA : 54;
 DCB : 0d;
 DCC : 65;
 DCD : 16;
 DCE : 96;
 DCF : 23;
 DD0 : a6;
 DD1 : 25;
 DD2 : a5;
 DD3 : 17;
 DD4 : 95;
 DD5 : 07;
 DD6 : 82;
 DD7 : 07;
 DD8 : b3;
 DD9 : 14;
 DDA : a4;
 DDB : 0b;
 DDC : a4;
 DDD : 10;
 DDE : 74;
 DDF : 06;
 DE0 : 63;
 DE1 : 05;
 DE2 : 74;
 DE3 : 06;
 DE4 : 62;
 DE5 : 04;
 DE6 : c4;
 DE7 : 13;
 DE8 : a3;
 DE9 : 09;
 DEA : b4;
 DEB : 10;
 DEC : c5;
 DED : 19;
 DEE : 95;
 DEF : 07;
 DF0 : 85;
 DF1 : 0a;
 DF2 : c4;
 DF3 : 17;
 DF4 : 73;
 DF5 : 03;
 DF6 : c4;
 DF7 : 0d;
 DF8 : d4;
 DF9 : 52;
 DFA : d5;
 DFB : 59;
 DFC : b4;
 DFD : 07;
 DFE : 53;
 DFF : 03;
 E00 : d4;
 E01 : 52;
 E02 : e5;
 E03 : 95;
 E04 : e4;
 E05 : 58;
 E06 : a3;
 E07 : 06;
 E08 : d4;
 E09 : 20;
 E0A : d4;
 E0B : 46;
 E0C : a4;
 E0D : 06;
 E0E : d4;
 E0F : 2b;
 E10 : d5;
 E11 : 68;
 E12 : d5;
 E13 : 7b;
 E14 : a4;
 E15 : 09;
 E16 : b3;
 E17 : 0c;
 E18 : d4;
 E19 : 32;
 E1A : d5;
 E1B : 4e;
 E1C : d4;
 E1D : 2c;
 E1E : 93;
 E1F : 08;
 E20 : c4;
 E21 : 0b;
 E22 : b4;
 E23 : 0b;
 E24 : c4;
 E25 : 12;
 E26 : b5;
 E27 : 0d;
 E28 : b5;
 E29 : 16;
 E2A : b5;
 E2B : 19;
 E2C : b6;
 E2D : 2d;
 E2E : b6;
 E2F : 5c;
 E30 : a6;
 E31 : 6e;
 E32 : 97;
 E33 : 8e;
 E34 : 97;
 E35 : 80;
 E36 : 54;
 E37 : 13;
 E38 : 32;
 E39 : 05;
 E3A : 46;
 E3B : 05;
 E3C : 45;
 E3D : 06;
 E3E : 45;
 E3F : 06;
 E40 : 34;
 E41 : 05;
 E42 : 44;
 E43 : 07;
 E44 : 44;
 E45 : 0f;
 E46 : 64;
 E47 : 0c;
 E48 : 54;
 E49 : 09;
 E4A : 44;
 E4B : 0a;
 E4C : 65;
 E4D : 0f;
 E4E : 85;
 E4F : 1e;
 E50 : 85;
 E51 : 1e;
 E52 : 75;
 E53 : 10;
 E54 : a4;
 E55 : 0f;
 E56 : c4;
 E57 : 23;
 E58 : c5;
 E59 : 23;
 E5A : 94;
 E5B : 09;
 E5C : 63;
 E5D : 05;
 E5E : 45;
 E5F : 02;
 E60 : 45;
 E61 : 02;
 E62 : 45;
 E63 : 02;
 E64 : b3;
 E65 : 07;
 E66 : c4;
 E67 : 1d;
 E68 : a4;
 E69 : 0a;
 E6A : 94;
 E6B : 06;
 E6C : b4;
 E6D : 10;
 E6E : 64;
 E6F : 04;
 E70 : b5;
 E71 : 0b;
 E72 : c5;
 E73 : 3f;
 E74 : d5;
 E75 : 29;
 E76 : d4;
 E77 : 3a;
 E78 : d4;
 E79 : 57;
 E7A : d5;
 E7B : 3b;
 E7C : 73;
 E7D : 03;
 E7E : 92;
 E7F : 04;
 E80 : a4;
 E81 : 07;
 E82 : c4;
 E83 : 0c;
 E84 : d4;
 E85 : 16;
 E86 : 72;
 E87 : 04;
 E88 : d4;
 E89 : 21;
 E8A : d5;
 E8B : 27;
 E8C : 00;
 E8D : 01;
 E8E : c4;
 E8F : 0b;
 E90 : c4;
 E91 : 0d;
 E92 : b4;
 E93 : 09;
 E94 : c4;
 E95 : 0e;
 E96 : a5;
 E97 : 07;
 E98 : c5;
 E99 : 25;
 E9A : d4;
 E9B : 1f;
 E9C : b4;
 E9D : 0b;
 E9E : 94;
 E9F : 09;
 EA0 : d4;
 EA1 : 23;
 EA2 : d4;
 EA3 : 36;
 EA4 : d4;
 EA5 : 25;
 EA6 : c5;
 EA7 : 2b;
 EA8 : c6;
 EA9 : 30;
 EAA : b6;
 EAB : 28;
 EAC : b6;
 EAD : 3c;
 EAE : b6;
 EAF : 55;
 EB0 : 96;
 EB1 : 65;
 EB2 : 96;
 EB3 : 92;
 EB4 : 97;
 EB5 : 7a;
 EB6 : 54;
 EB7 : 0e;
 EB8 : 32;
 EB9 : 05;
 EBA : 46;
 EBB : 07;
 EBC : 45;
 EBD : 08;
 EBE : 45;
 EBF : 09;
 EC0 : 64;
 EC1 : 08;
 EC2 : 44;
 EC3 : 07;
 EC4 : 64;
 EC5 : 08;
 EC6 : 85;
 EC7 : 0c;
 EC8 : 74;
 EC9 : 0a;
 ECA : 64;
 ECB : 0c;
 ECC : 65;
 ECD : 19;
 ECE : 75;
 ECF : 24;
 ED0 : 75;
 ED1 : 27;
 ED2 : 95;
 ED3 : 1a;
 ED4 : c5;
 ED5 : 32;
 ED6 : c4;
 ED7 : 32;
 ED8 : b5;
 ED9 : 17;
 EDA : 54;
 EDB : 07;
 EDC : 64;
 EDD : 06;
 EDE : 74;
 EDF : 04;
 EE0 : 63;
 EE1 : 05;
 EE2 : a4;
 EE3 : 0d;
 EE4 : b3;
 EE5 : 14;
 EE6 : a4;
 EE7 : 0b;
 EE8 : 00;
 EE9 : 02;
 EEA : 74;
 EEB : 04;
 EEC : a4;
 EED : 0e;
 EEE : b6;
 EEF : 1a;
 EF0 : 95;
 EF1 : 0e;
 EF2 : 86;
 EF3 : 09;
 EF4 : b4;
 EF5 : 0b;
 EF6 : b4;
 EF7 : 10;
 EF8 : c4;
 EF9 : 23;
 EFA : d4;
 EFB : 4d;
 EFC : e5;
 EFD : 62;
 EFE : d5;
 EFF : 93;
 F00 : d5;
 F01 : 22;
 F02 : 00;
 F03 : 01;
 F04 : 53;
 F05 : 03;
 F06 : 45;
 F07 : 02;
 F08 : b4;
 F09 : 07;
 F0A : a4;
 F0B : 07;
 F0C : 53;
 F0D : 03;
 F0E : a3;
 F0F : 06;
 F10 : d5;
 F11 : 1a;
 F12 : d5;
 F13 : 15;
 F14 : d4;
 F15 : 1c;
 F16 : c5;
 F17 : 0b;
 F18 : b5;
 F19 : 0d;
 F1A : c4;
 F1B : 19;
 F1C : 73;
 F1D : 03;
 F1E : b5;
 F1F : 12;
 F20 : d5;
 F21 : 47;
 F22 : d4;
 F23 : 54;
 F24 : d5;
 F25 : 47;
 F26 : c6;
 F27 : 3e;
 F28 : b6;
 F29 : 57;
 F2A : b6;
 F2B : 44;
 F2C : b6;
 F2D : 35;
 F2E : a6;
 F2F : 44;
 F30 : 96;
 F31 : 64;
 F32 : 86;
 F33 : 92;
 F34 : 96;
 F35 : 6b;
 F36 : 43;
 F37 : 06;
 F38 : 42;
 F39 : 04;
 F3A : 36;
 F3B : 07;
 F3C : 45;
 F3D : 08;
 F3E : 65;
 F3F : 0a;
 F40 : 74;
 F41 : 09;
 F42 : 55;
 F43 : 09;
 F44 : 75;
 F45 : 0d;
 F46 : 85;
 F47 : 11;
 F48 : 74;
 F49 : 0b;
 F4A : 74;
 F4B : 0d;
 F4C : 54;
 F4D : 0e;
 F4E : 54;
 F4F : 13;
 F50 : 95;
 F51 : 1c;
 F52 : b5;
 F53 : 24;
 F54 : b5;
 F55 : 21;
 F56 : a4;
 F57 : 11;
 F58 : a4;
 F59 : 10;
 F5A : 44;
 F5B : 05;
 F5C : 94;
 F5D : 09;
 F5E : a4;
 F5F : 12;
 F60 : 74;
 F61 : 07;
 F62 : 74;
 F63 : 04;
 F64 : 42;
 F65 : 04;
 F66 : a4;
 F67 : 0b;
 F68 : 93;
 F69 : 05;
 F6A : a4;
 F6B : 0b;
 F6C : c5;
 F6D : 37;
 F6E : d6;
 F6F : 61;
 F70 : b5;
 F71 : 23;
 F72 : a4;
 F73 : 0e;
 F74 : 45;
 F75 : 02;
 F76 : 65;
 F77 : 05;
 F78 : c4;
 F79 : 1c;
 F7A : d4;
 F7B : 16;
 F7C : d5;
 F7D : 51;
 F7E : d5;
 F7F : 47;
 F80 : d5;
 F81 : 1c;
 F82 : d4;
 F83 : 19;
 F84 : c4;
 F85 : 0e;
 F86 : 92;
 F87 : 04;
 F88 : 92;
 F89 : 04;
 F8A : 00;
 F8B : 02;
 F8C : 94;
 F8D : 04;
 F8E : c5;
 F8F : 09;
 F90 : a3;
 F91 : 06;
 F92 : d5;
 F93 : 92;
 F94 : d5;
 F95 : 96;
 F96 : d4;
 F97 : 3a;
 F98 : 94;
 F99 : 06;
 F9A : c4;
 F9B : 12;
 F9C : c5;
 F9D : 2c;
 F9E : c4;
 F9F : 27;
 FA0 : c5;
 FA1 : 5c;
 FA2 : d5;
 FA3 : 5f;
 FA4 : c6;
 FA5 : 51;
 FA6 : b6;
 FA7 : 4e;
 FA8 : b6;
 FA9 : 4b;
 FAA : b6;
 FAB : 46;
 FAC : a6;
 FAD : 35;
 FAE : 96;
 FAF : 3f;
 FB0 : 96;
 FB1 : 6e;
 FB2 : 97;
 FB3 : 89;
 FB4 : 76;
 FB5 : 20;
 FB6 : 00;
 FB7 : 04;
 FB8 : 44;
 FB9 : 05;
 FBA : 36;
 FBB : 07;
 FBC : 45;
 FBD : 0a;
 FBE : 55;
 FBF : 0b;
 FC0 : 54;
 FC1 : 0b;
 FC2 : 45;
 FC3 : 0a;
 FC4 : 66;
 FC5 : 0d;
 FC6 : 75;
 FC7 : 1d;
 FC8 : 75;
 FC9 : 11;
 FCA : 54;
 FCB : 0a;
 FCC : 44;
 FCD : 09;
 FCE : 74;
 FCF : 0d;
 FD0 : a6;
 FD1 : 18;
 FD2 : 84;
 FD3 : 0d;
 FD4 : 65;
 FD5 : 07;
 FD6 : 74;
 FD7 : 09;
 FD8 : 53;
 FD9 : 06;
 FDA : 53;
 FDB : 03;
 FDC : 74;
 FDD : 06;
 FDE : 94;
 FDF : 0b;
 FE0 : 74;
 FE1 : 07;
 FE2 : 00;
 FE3 : 02;
 FE4 : 42;
 FE5 : 04;
 FE6 : b4;
 FE7 : 10;
 FE8 : a4;
 FE9 : 0b;
 FEA : 42;
 FEB : 04;
 FEC : c5;
 FED : 21;
 FEE : c5;
 FEF : 2d;
 FF0 : a4;
 FF1 : 0d;
 FF2 : b5;
 FF3 : 2c;
 FF4 : c4;
 FF5 : 15;
 FF6 : c4;
 FF7 : 14;
 FF8 : c4;
 FF9 : 1a;
 FFA : d4;
 FFB : 25;
 FFC : b4;
 FFD : 16;
 FFE : 00;
 FFF : 01;
 1000 : a3;
 1001 : 06;
 1002 : d4;
 1003 : 3e;
 1004 : c4;
 1005 : 0b;
 1006 : d3;
 1007 : 27;
 1008 : c3;
 1009 : 11;
 100A : d4;
 100B : 1f;
 100C : d4;
 100D : 5e;
 100E : d5;
 100F : 75;
 1010 : a3;
 1011 : 08;
 1012 : d5;
 1013 : 3b;
 1014 : d5;
 1015 : 80;
 1016 : c4;
 1017 : 17;
 1018 : a4;
 1019 : 09;
 101A : a4;
 101B : 09;
 101C : b5;
 101D : 1b;
 101E : b4;
 101F : 19;
 1020 : c5;
 1021 : 23;
 1022 : d6;
 1023 : 6d;
 1024 : c6;
 1025 : 6a;
 1026 : b6;
 1027 : 58;
 1028 : a6;
 1029 : 64;
 102A : a6;
 102B : 71;
 102C : a7;
 102D : 80;
 102E : 96;
 102F : 85;
 1030 : 96;
 1031 : 85;
 1032 : 86;
 1033 : 3e;
 1034 : 33;
 1035 : 07;
 1036 : 24;
 1037 : 06;
 1038 : 64;
 1039 : 09;
 103A : 44;
 103B : 09;
 103C : 55;
 103D : 0b;
 103E : 46;
 103F : 0c;
 1040 : 45;
 1041 : 0d;
 1042 : 45;
 1043 : 0b;
 1044 : 65;
 1045 : 0e;
 1046 : 86;
 1047 : 2a;
 1048 : 95;
 1049 : 1e;
 104A : 75;
 104B : 0c;
 104C : 54;
 104D : 09;
 104E : 95;
 104F : 15;
 1050 : 85;
 1051 : 10;
 1052 : 64;
 1053 : 0b;
 1054 : a5;
 1055 : 15;
 1056 : a5;
 1057 : 20;
 1058 : a5;
 1059 : 15;
 105A : 55;
 105B : 07;
 105C : 74;
 105D : 07;
 105E : b5;
 105F : 23;
 1060 : 95;
 1061 : 0b;
 1062 : 45;
 1063 : 04;
 1064 : b4;
 1065 : 10;
 1066 : a4;
 1067 : 12;
 1068 : 42;
 1069 : 04;
 106A : 07;
 106B : 02;
 106C : 45;
 106D : 02;
 106E : 53;
 106F : 03;
 1070 : 45;
 1071 : 02;
 1072 : c6;
 1073 : 43;
 1074 : b4;
 1075 : 1b;
 1076 : c3;
 1077 : 16;
 1078 : d5;
 1079 : 3b;
 107A : d6;
 107B : 95;
 107C : d4;
 107D : 39;
 107E : 74;
 107F : 02;
 1080 : d4;
 1081 : 13;
 1082 : d5;
 1083 : 2a;
 1084 : 70;
 1085 : 01;
 1086 : d4;
 1087 : 21;
 1088 : d4;
 1089 : 22;
 108A : e5;
 108B : 6a;
 108C : d5;
 108D : 77;
 108E : d5;
 108F : 95;
 1090 : c3;
 1091 : 0d;
 1092 : 00;
 1093 : 01;
 1094 : d5;
 1095 : 5b;
 1096 : d5;
 1097 : 2c;
 1098 : 94;
 1099 : 0a;
 109A : c5;
 109B : 4a;
 109C : c5;
 109D : 37;
 109E : 23;
 109F : 04;
 10A0 : b4;
 10A1 : 10;
 10A2 : d6;
 10A3 : 7a;
 10A4 : c6;
 10A5 : 85;
 10A6 : a6;
 10A7 : 43;
 10A8 : a6;
 10A9 : 4e;
 10AA : a6;
 10AB : 5f;
 10AC : 96;
 10AD : 89;
 10AE : 96;
 10AF : 8c;
 10B0 : 96;
 10B1 : 2f;
 10B2 : 64;
 10B3 : 09;
 10B4 : 84;
 10B5 : 0b;
 10B6 : a4;
 10B7 : 16;
 10B8 : 94;
 10B9 : 0f;
 10BA : 44;
 10BB : 0a;
 10BC : 66;
 10BD : 09;
 10BE : 45;
 10BF : 0b;
 10C0 : 45;
 10C1 : 0b;
 10C2 : 45;
 10C3 : 0b;
 10C4 : 46;
 10C5 : 0c;
 10C6 : 85;
 10C7 : 15;
 10C8 : a5;
 10C9 : 15;
 10CA : 65;
 10CB : 09;
 10CC : 54;
 10CD : 0b;
 10CE : 85;
 10CF : 0f;
 10D0 : 74;
 10D1 : 0a;
 10D2 : 64;
 10D3 : 0a;
 10D4 : 65;
 10D5 : 07;
 10D6 : a5;
 10D7 : 15;
 10D8 : a5;
 10D9 : 1e;
 10DA : a5;
 10DB : 15;
 10DC : b5;
 10DD : 1d;
 10DE : 84;
 10DF : 08;
 10E0 : 24;
 10E1 : 03;
 10E2 : 94;
 10E3 : 09;
 10E4 : b4;
 10E5 : 15;
 10E6 : a5;
 10E7 : 13;
 10E8 : b5;
 10E9 : 2a;
 10EA : b4;
 10EB : 10;
 10EC : 73;
 10ED : 03;
 10EE : 74;
 10EF : 02;
 10F0 : 74;
 10F1 : 02;
 10F2 : b6;
 10F3 : 30;
 10F4 : 94;
 10F5 : 11;
 10F6 : c3;
 10F7 : 0f;
 10F8 : d5;
 10F9 : 5e;
 10FA : d6;
 10FB : 86;
 10FC : d4;
 10FD : 51;
 10FE : c4;
 10FF : 0d;
 1100 : b4;
 1101 : 08;
 1102 : d4;
 1103 : 25;
 1104 : b3;
 1105 : 07;
 1106 : d4;
 1107 : 20;
 1108 : c4;
 1109 : 0c;
 110A : d4;
 110B : 3a;
 110C : b4;
 110D : 09;
 110E : d4;
 110F : 24;
 1110 : 93;
 1111 : 05;
 1112 : c4;
 1113 : 0c;
 1114 : d6;
 1115 : 9f;
 1116 : d5;
 1117 : 6e;
 1118 : c4;
 1119 : 1a;
 111A : c6;
 111B : 21;
 111C : c5;
 111D : 1e;
 111E : c5;
 111F : 22;
 1120 : c6;
 1121 : 32;
 1122 : c5;
 1123 : 43;
 1124 : c6;
 1125 : 93;
 1126 : b6;
 1127 : 5f;
 1128 : b6;
 1129 : 4f;
 112A : a6;
 112B : 65;
 112C : 96;
 112D : 5e;
 112E : 96;
 112F : 23;
 1130 : 53;
 1131 : 06;
 1132 : 64;
 1133 : 06;
 1134 : 84;
 1135 : 0d;
 1136 : 74;
 1137 : 0d;
 1138 : 43;
 1139 : 07;
 113A : 45;
 113B : 0a;
 113C : 64;
 113D : 0a;
 113E : 65;
 113F : 0c;
 1140 : 55;
 1141 : 0b;
 1142 : 45;
 1143 : 0b;
 1144 : 36;
 1145 : 0b;
 1146 : 45;
 1147 : 09;
 1148 : 74;
 1149 : 08;
 114A : 64;
 114B : 08;
 114C : 64;
 114D : 0d;
 114E : 74;
 114F : 0d;
 1150 : 74;
 1151 : 0b;
 1152 : 55;
 1153 : 07;
 1154 : 64;
 1155 : 04;
 1156 : 74;
 1157 : 09;
 1158 : 54;
 1159 : 06;
 115A : c6;
 115B : 3b;
 115C : b5;
 115D : 20;
 115E : 00;
 115F : 02;
 1160 : 53;
 1161 : 03;
 1162 : b4;
 1163 : 13;
 1164 : 74;
 1165 : 06;
 1166 : b5;
 1167 : 1a;
 1168 : c5;
 1169 : 39;
 116A : c5;
 116B : 35;
 116C : c6;
 116D : 29;
 116E : b4;
 116F : 15;
 1170 : c5;
 1171 : 32;
 1172 : c5;
 1173 : 49;
 1174 : 94;
 1175 : 0d;
 1176 : c4;
 1177 : 11;
 1178 : d5;
 1179 : 59;
 117A : d5;
 117B : 80;
 117C : d5;
 117D : 68;
 117E : b4;
 117F : 07;
 1180 : 93;
 1181 : 05;
 1182 : d4;
 1183 : 28;
 1184 : b4;
 1185 : 0a;
 1186 : d3;
 1187 : 29;
 1188 : 74;
 1189 : 02;
 118A : d4;
 118B : 23;
 118C : 93;
 118D : 05;
 118E : 93;
 118F : 05;
 1190 : b4;
 1191 : 07;
 1192 : d5;
 1193 : 4f;
 1194 : d6;
 1195 : 88;
 1196 : d6;
 1197 : 88;
 1198 : d4;
 1199 : 28;
 119A : b5;
 119B : 28;
 119C : 63;
 119D : 05;
 119E : a4;
 119F : 0e;
 11A0 : c6;
 11A1 : 25;
 11A2 : a4;
 11A3 : 0d;
 11A4 : c6;
 11A5 : 3a;
 11A6 : c6;
 11A7 : 86;
 11A8 : c5;
 11A9 : 64;
 11AA : b5;
 11AB : 2c;
 11AC : b5;
 11AD : 2a;
 11AE : c5;
 11AF : 21;
 11B0 : b4;
 11B1 : 18;
 11B2 : c5;
 11B3 : 1e;
 11B4 : b5;
 11B5 : 22;
 11B6 : b4;
 11B7 : 25;
 11B8 : c5;
 11B9 : 31;
 11BA : 35;
 11BB : 0a;
 11BC : 55;
 11BD : 09;
 11BE : 74;
 11BF : 0d;
 11C0 : 85;
 11C1 : 0c;
 11C2 : 74;
 11C3 : 0b;
 11C4 : 65;
 11C5 : 0b;
 11C6 : 55;
 11C7 : 0b;
 11C8 : 54;
 11C9 : 09;
 11CA : 74;
 11CB : 08;
 11CC : 65;
 11CD : 0f;
 11CE : 85;
 11CF : 12;
 11D0 : a5;
 11D1 : 14;
 11D2 : 44;
 11D3 : 05;
 11D4 : 75;
 11D5 : 06;
 11D6 : 54;
 11D7 : 07;
 11D8 : 65;
 11D9 : 07;
 11DA : c6;
 11DB : 43;
 11DC : c5;
 11DD : 4b;
 11DE : b5;
 11DF : 19;
 11E0 : b4;
 11E1 : 19;
 11E2 : b4;
 11E3 : 1f;
 11E4 : 84;
 11E5 : 0a;
 11E6 : a4;
 11E7 : 10;
 11E8 : 84;
 11E9 : 08;
 11EA : 95;
 11EB : 07;
 11EC : 75;
 11ED : 05;
 11EE : 95;
 11EF : 07;
 11F0 : b5;
 11F1 : 1b;
 11F2 : c5;
 11F3 : 3f;
 11F4 : b5;
 11F5 : 14;
 11F6 : 93;
 11F7 : 05;
 11F8 : d4;
 11F9 : 2f;
 11FA : d4;
 11FB : 49;
 11FC : d4;
 11FD : 46;
 11FE : d4;
 11FF : 1e;
 1200 : 53;
 1201 : 03;
 1202 : 74;
 1203 : 04;
 1204 : 74;
 1205 : 02;
 1206 : d4;
 1207 : 32;
 1208 : d4;
 1209 : 1c;
 120A : d4;
 120B : 4e;
 120C : d3;
 120D : 39;
 120E : d3;
 120F : 11;
 1210 : c4;
 1211 : 0b;
 1212 : d4;
 1213 : 4e;
 1214 : d6;
 1215 : 99;
 1216 : c6;
 1217 : af;
 1218 : c5;
 1219 : 34;
 121A : b5;
 121B : 20;
 121C : 40;
 121D : 02;
 121E : 00;
 121F : 02;
 1220 : 24;
 1221 : 03;
 1222 : a4;
 1223 : 10;
 1224 : c6;
 1225 : 5e;
 1226 : c6;
 1227 : 83;
 1228 : c6;
 1229 : 9b;
 122A : b5;
 122B : 2c;
 122C : b4;
 122D : 14;
 122E : 84;
 122F : 08;
 1230 : 53;
 1231 : 06;
 1232 : 44;
 1233 : 05;
 1234 : 54;
 1235 : 07;
 1236 : 94;
 1237 : 10;
 1238 : c5;
 1239 : 57;
 123A : 35;
 123B : 09;
 123C : 45;
 123D : 08;
 123E : 75;
 123F : 0c;
 1240 : 84;
 1241 : 0e;
 1242 : 74;
 1243 : 0b;
 1244 : 64;
 1245 : 09;
 1246 : 46;
 1247 : 07;
 1248 : 44;
 1249 : 07;
 124A : 64;
 124B : 09;
 124C : 65;
 124D : 0f;
 124E : 85;
 124F : 0f;
 1250 : 74;
 1251 : 0b;
 1252 : 74;
 1253 : 09;
 1254 : 95;
 1255 : 10;
 1256 : 74;
 1257 : 09;
 1258 : a5;
 1259 : 17;
 125A : a5;
 125B : 18;
 125C : a5;
 125D : 1e;
 125E : a5;
 125F : 16;
 1260 : a4;
 1261 : 15;
 1262 : 94;
 1263 : 09;
 1264 : c5;
 1265 : 15;
 1266 : c5;
 1267 : 34;
 1268 : a4;
 1269 : 0a;
 126A : 00;
 126B : 02;
 126C : 74;
 126D : 04;
 126E : 85;
 126F : 0c;
 1270 : 44;
 1271 : 07;
 1272 : 54;
 1273 : 0b;
 1274 : 75;
 1275 : 05;
 1276 : 95;
 1277 : 07;
 1278 : c4;
 1279 : 18;
 127A : d4;
 127B : 27;
 127C : c4;
 127D : 1d;
 127E : c3;
 127F : 16;
 1280 : b4;
 1281 : 08;
 1282 : a3;
 1283 : 08;
 1284 : c4;
 1285 : 19;
 1286 : d4;
 1287 : 49;
 1288 : d4;
 1289 : 4a;
 128A : d4;
 128B : 36;
 128C : d4;
 128D : 36;
 128E : e4;
 128F : 44;
 1290 : d4;
 1291 : 4f;
 1292 : e4;
 1293 : 5b;
 1294 : d5;
 1295 : 93;
 1296 : d6;
 1297 : 93;
 1298 : c6;
 1299 : 3f;
 129A : c6;
 129B : 74;
 129C : c5;
 129D : 43;
 129E : c5;
 129F : 18;
 12A0 : b5;
 12A1 : 19;
 12A2 : b5;
 12A3 : 21;
 12A4 : c6;
 12A5 : 99;
 12A6 : b6;
 12A7 : 93;
 12A8 : b7;
 12A9 : 9b;
 12AA : a5;
 12AB : 11;
 12AC : 42;
 12AD : 04;
 12AE : a4;
 12AF : 0d;
 12B0 : c4;
 12B1 : 24;
 12B2 : b4;
 12B3 : 11;
 12B4 : 23;
 12B5 : 04;
 12B6 : 00;
 12B7 : 04;
 12B8 : b4;
 12B9 : 25;
 12BA : 34;
 12BB : 0a;
 12BC : 44;
 12BD : 09;
 12BE : 75;
 12BF : 0d;
 12C0 : 74;
 12C1 : 10;
 12C2 : 64;
 12C3 : 0b;
 12C4 : 54;
 12C5 : 06;
 12C6 : 43;
 12C7 : 06;
 12C8 : 44;
 12C9 : 05;
 12CA : 65;
 12CB : 07;
 12CC : 54;
 12CD : 0b;
 12CE : 53;
 12CF : 06;
 12D0 : 45;
 12D1 : 04;
 12D2 : 75;
 12D3 : 0a;
 12D4 : 75;
 12D5 : 0b;
 12D6 : 65;
 12D7 : 07;
 12D8 : 74;
 12D9 : 0b;
 12DA : 23;
 12DB : 04;
 12DC : 23;
 12DD : 04;
 12DE : 23;
 12DF : 04;
 12E0 : 64;
 12E1 : 06;
 12E2 : 75;
 12E3 : 05;
 12E4 : b5;
 12E5 : 15;
 12E6 : c5;
 12E7 : 2f;
 12E8 : b7;
 12E9 : 9f;
 12EA : a6;
 12EB : 44;
 12EC : 85;
 12ED : 0a;
 12EE : a7;
 12EF : 62;
 12F0 : 86;
 12F1 : 30;
 12F2 : 75;
 12F3 : 19;
 12F4 : 53;
 12F5 : 03;
 12F6 : 64;
 12F7 : 04;
 12F8 : 93;
 12F9 : 0b;
 12FA : c3;
 12FB : 16;
 12FC : c3;
 12FD : 0f;
 12FE : 93;
 12FF : 08;
 1300 : a2;
 1301 : 08;
 1302 : b3;
 1303 : 09;
 1304 : a4;
 1305 : 09;
 1306 : b4;
 1307 : 0c;
 1308 : c4;
 1309 : 12;
 130A : d4;
 130B : 35;
 130C : b4;
 130D : 09;
 130E : b3;
 130F : 09;
 1310 : c4;
 1311 : 11;
 1312 : d4;
 1313 : 2b;
 1314 : e5;
 1315 : 72;
 1316 : d5;
 1317 : 5c;
 1318 : a6;
 1319 : 28;
 131A : b5;
 131B : 31;
 131C : c6;
 131D : 43;
 131E : c6;
 131F : 7a;
 1320 : c6;
 1321 : 6e;
 1322 : c5;
 1323 : 22;
 1324 : d6;
 1325 : 49;
 1326 : b6;
 1327 : 5e;
 1328 : b6;
 1329 : 61;
 132A : 00;
 132B : 02;
 132C : 20;
 132D : 04;
 132E : c4;
 132F : 20;
 1330 : d5;
 1331 : 67;
 1332 : d5;
 1333 : 37;
 1334 : 63;
 1335 : 08;
 1336 : 13;
 1337 : 05;
 1338 : c5;
 1339 : 3b;
 133A : 44;
 133B : 08;
 133C : 44;
 133D : 09;
 133E : 65;
 133F : 0b;
 1340 : 74;
 1341 : 0d;
 1342 : 45;
 1343 : 0a;
 1344 : 34;
 1345 : 05;
 1346 : 43;
 1347 : 06;
 1348 : 63;
 1349 : 05;
 134A : 65;
 134B : 07;
 134C : 54;
 134D : 08;
 134E : 42;
 134F : 04;
 1350 : 45;
 1351 : 04;
 1352 : 54;
 1353 : 07;
 1354 : 74;
 1355 : 09;
 1356 : a5;
 1357 : 11;
 1358 : 95;
 1359 : 0f;
 135A : 24;
 135B : 06;
 135C : 45;
 135D : 04;
 135E : 23;
 135F : 04;
 1360 : 94;
 1361 : 0b;
 1362 : c4;
 1363 : 1d;
 1364 : c5;
 1365 : 2d;
 1366 : 00;
 1367 : 03;
 1368 : b7;
 1369 : 4b;
 136A : a7;
 136B : cd;
 136C : a6;
 136D : 31;
 136E : 95;
 136F : 15;
 1370 : 86;
 1371 : 30;
 1372 : 75;
 1373 : 17;
 1374 : 40;
 1375 : 02;
 1376 : 53;
 1377 : 03;
 1378 : a4;
 1379 : 13;
 137A : b4;
 137B : 14;
 137C : b3;
 137D : 0d;
 137E : 62;
 137F : 04;
 1380 : b3;
 1381 : 09;
 1382 : c3;
 1383 : 18;
 1384 : d4;
 1385 : 21;
 1386 : d4;
 1387 : 46;
 1388 : d4;
 1389 : 68;
 138A : e5;
 138B : 8c;
 138C : e5;
 138D : 6a;
 138E : d4;
 138F : 5e;
 1390 : d3;
 1391 : 1a;
 1392 : d4;
 1393 : 36;
 1394 : d4;
 1395 : 5e;
 1396 : a4;
 1397 : 1c;
 1398 : 66;
 1399 : 1c;
 139A : 75;
 139B : 06;
 139C : 40;
 139D : 02;
 139E : c5;
 139F : 11;
 13A0 : c5;
 13A1 : 36;
 13A2 : c5;
 13A3 : 43;
 13A4 : c5;
 13A5 : 46;
 13A6 : b6;
 13A7 : 1b;
 13A8 : c5;
 13A9 : 57;
 13AA : d5;
 13AB : 32;
 13AC : 93;
 13AD : 06;
 13AE : 42;
 13AF : 04;
 13B0 : d5;
 13B1 : 46;
 13B2 : c4;
 13B3 : 2f;
 13B4 : b4;
 13B5 : 23;
 13B6 : 43;
 13B7 : 07;
 13B8 : a4;
 13B9 : 1e;
 13BA : 35;
 13BB : 07;
 13BC : 45;
 13BD : 08;
 13BE : 54;
 13BF : 0a;
 13C0 : 54;
 13C1 : 0b;
 13C2 : 44;
 13C3 : 09;
 13C4 : 45;
 13C5 : 08;
 13C6 : 55;
 13C7 : 07;
 13C8 : 65;
 13C9 : 05;
 13CA : 66;
 13CB : 06;
 13CC : 44;
 13CD : 09;
 13CE : 45;
 13CF : 04;
 13D0 : 64;
 13D1 : 04;
 13D2 : 55;
 13D3 : 07;
 13D4 : a5;
 13D5 : 18;
 13D6 : a4;
 13D7 : 18;
 13D8 : 64;
 13D9 : 0a;
 13DA : 34;
 13DB : 05;
 13DC : 42;
 13DD : 04;
 13DE : a4;
 13DF : 12;
 13E0 : a4;
 13E1 : 13;
 13E2 : c4;
 13E3 : 28;
 13E4 : c5;
 13E5 : 5e;
 13E6 : c5;
 13E7 : 1d;
 13E8 : 92;
 13E9 : 04;
 13EA : b7;
 13EB : 46;
 13EC : a7;
 13ED : bf;
 13EE : a7;
 13EF : 89;
 13F0 : a6;
 13F1 : 39;
 13F2 : a5;
 13F3 : 18;
 13F4 : 73;
 13F5 : 03;
 13F6 : 24;
 13F7 : 03;
 13F8 : 74;
 13F9 : 04;
 13FA : 94;
 13FB : 08;
 13FC : c4;
 13FD : 1b;
 13FE : a4;
 13FF : 09;
 1400 : b3;
 1401 : 0d;
 1402 : c4;
 1403 : 1b;
 1404 : d3;
 1405 : 43;
 1406 : d4;
 1407 : 6e;
 1408 : d4;
 1409 : 65;
 140A : d4;
 140B : 7e;
 140C : e4;
 140D : 7b;
 140E : d5;
 140F : 88;
 1410 : d4;
 1411 : 30;
 1412 : d5;
 1413 : 72;
 1414 : b6;
 1415 : 99;
 1416 : a7;
 1417 : 65;
 1418 : a6;
 1419 : 77;
 141A : 95;
 141B : 19;
 141C : b5;
 141D : 1b;
 141E : c6;
 141F : 83;
 1420 : c5;
 1421 : 47;
 1422 : b5;
 1423 : 0e;
 1424 : b5;
 1425 : 23;
 1426 : c6;
 1427 : 46;
 1428 : b5;
 1429 : 0e;
 142A : d5;
 142B : 5e;
 142C : d6;
 142D : 88;
 142E : c4;
 142F : 13;
 1430 : c4;
 1431 : 1d;
 1432 : d5;
 1433 : 64;
 1434 : c5;
 1435 : 49;
 1436 : 43;
 1437 : 07;
 1438 : 54;
 1439 : 0d;
 143A : 45;
 143B : 06;
 143C : 44;
 143D : 09;
 143E : 55;
 143F : 0b;
 1440 : 54;
 1441 : 09;
 1442 : 35;
 1443 : 09;
 1444 : 44;
 1445 : 09;
 1446 : 54;
 1447 : 07;
 1448 : 74;
 1449 : 04;
 144A : 66;
 144B : 06;
 144C : 54;
 144D : 09;
 144E : 66;
 144F : 06;
 1450 : 54;
 1451 : 06;
 1452 : 65;
 1453 : 07;
 1454 : a5;
 1455 : 16;
 1456 : 64;
 1457 : 08;
 1458 : 34;
 1459 : 05;
 145A : 24;
 145B : 03;
 145C : 75;
 145D : 05;
 145E : b4;
 145F : 24;
 1460 : 94;
 1461 : 0a;
 1462 : 95;
 1463 : 07;
 1464 : c5;
 1465 : 61;
 1466 : d6;
 1467 : 8c;
 1468 : d6;
 1469 : 8c;
 146A : c6;
 146B : 89;
 146C : c6;
 146D : 6d;
 146E : b7;
 146F : 95;
 1470 : b7;
 1471 : ba;
 1472 : b7;
 1473 : 96;
 1474 : a6;
 1475 : 52;
 1476 : 42;
 1477 : 05;
 1478 : 45;
 1479 : 02;
 147A : 53;
 147B : 03;
 147C : b3;
 147D : 15;
 147E : c3;
 147F : 15;
 1480 : c3;
 1481 : 12;
 1482 : c3;
 1483 : 1f;
 1484 : e4;
 1485 : 3f;
 1486 : e4;
 1487 : 59;
 1488 : e4;
 1489 : 57;
 148A : e4;
 148B : 5c;
 148C : e4;
 148D : 77;
 148E : d4;
 148F : 77;
 1490 : d4;
 1491 : 29;
 1492 : d5;
 1493 : 59;
 1494 : b5;
 1495 : 32;
 1496 : a6;
 1497 : 46;
 1498 : a6;
 1499 : 2f;
 149A : 75;
 149B : 0b;
 149C : a7;
 149D : b7;
 149E : b7;
 149F : a5;
 14A0 : b4;
 14A1 : 16;
 14A2 : b5;
 14A3 : 0d;
 14A4 : a5;
 14A5 : 0d;
 14A6 : c6;
 14A7 : 7a;
 14A8 : 64;
 14A9 : 04;
 14AA : 73;
 14AB : 05;
 14AC : d6;
 14AD : 7d;
 14AE : d5;
 14AF : 80;
 14B0 : 95;
 14B1 : 07;
 14B2 : a4;
 14B3 : 09;
 14B4 : a4;
 14B5 : 0d;
 14B6 : 12;
 14B7 : 06;
 14B8 : 24;
 14B9 : 06;
 14BA : 35;
 14BB : 07;
 14BC : 35;
 14BD : 0b;
 14BE : 35;
 14BF : 0b;
 14C0 : 46;
 14C1 : 07;
 14C2 : 45;
 14C3 : 06;
 14C4 : 45;
 14C5 : 04;
 14C6 : 64;
 14C7 : 06;
 14C8 : 75;
 14C9 : 05;
 14CA : 64;
 14CB : 06;
 14CC : 74;
 14CD : 0a;
 14CE : 64;
 14CF : 09;
 14D0 : 64;
 14D1 : 06;
 14D2 : 74;
 14D3 : 07;
 14D4 : a4;
 14D5 : 17;
 14D6 : 74;
 14D7 : 08;
 14D8 : 44;
 14D9 : 05;
 14DA : a5;
 14DB : 0a;
 14DC : b5;
 14DD : 2c;
 14DE : c5;
 14DF : 2c;
 14E0 : a4;
 14E1 : 10;
 14E2 : 42;
 14E3 : 04;
 14E4 : b5;
 14E5 : 22;
 14E6 : b5;
 14E7 : 21;
 14E8 : c5;
 14E9 : 3e;
 14EA : c6;
 14EB : 71;
 14EC : c7;
 14ED : be;
 14EE : c6;
 14EF : 67;
 14F0 : b6;
 14F1 : 70;
 14F2 : b7;
 14F3 : b3;
 14F4 : a7;
 14F5 : 75;
 14F6 : 44;
 14F7 : 07;
 14F8 : 45;
 14F9 : 02;
 14FA : 73;
 14FB : 05;
 14FC : a4;
 14FD : 09;
 14FE : c3;
 14FF : 11;
 1500 : b3;
 1501 : 0d;
 1502 : c4;
 1503 : 1d;
 1504 : d4;
 1505 : 29;
 1506 : d4;
 1507 : 3c;
 1508 : d4;
 1509 : 44;
 150A : d3;
 150B : 49;
 150C : e4;
 150D : 6a;
 150E : e5;
 150F : 8e;
 1510 : e4;
 1511 : 5b;
 1512 : d4;
 1513 : 35;
 1514 : c5;
 1515 : 31;
 1516 : c6;
 1517 : 75;
 1518 : b6;
 1519 : 75;
 151A : a7;
 151B : b7;
 151C : a7;
 151D : 99;
 151E : 65;
 151F : 08;
 1520 : b5;
 1521 : 0d;
 1522 : d6;
 1523 : 61;
 1524 : c5;
 1525 : 1c;
 1526 : c6;
 1527 : 3c;
 1528 : 93;
 1529 : 08;
 152A : 40;
 152B : 02;
 152C : 93;
 152D : 05;
 152E : d5;
 152F : 5c;
 1530 : d5;
 1531 : 54;
 1532 : 24;
 1533 : 03;
 1534 : 00;
 1535 : 04;
 1536 : 43;
 1537 : 07;
 1538 : c5;
 1539 : 2f;
 153A : 45;
 153B : 0a;
 153C : 45;
 153D : 0b;
 153E : 35;
 153F : 0a;
 1540 : 65;
 1541 : 09;
 1542 : 74;
 1543 : 08;
 1544 : 45;
 1545 : 04;
 1546 : 74;
 1547 : 07;
 1548 : 65;
 1549 : 05;
 154A : 43;
 154B : 06;
 154C : 54;
 154D : 06;
 154E : 64;
 154F : 08;
 1550 : 65;
 1551 : 07;
 1552 : 95;
 1553 : 12;
 1554 : 95;
 1555 : 12;
 1556 : 84;
 1557 : 0c;
 1558 : a5;
 1559 : 18;
 155A : b6;
 155B : 35;
 155C : c6;
 155D : 57;
 155E : c5;
 155F : 43;
 1560 : c5;
 1561 : 32;
 1562 : c5;
 1563 : 30;
 1564 : c5;
 1565 : 3e;
 1566 : a5;
 1567 : 10;
 1568 : 00;
 1569 : 02;
 156A : b6;
 156B : 3a;
 156C : b7;
 156D : d7;
 156E : b6;
 156F : a7;
 1570 : b6;
 1571 : 74;
 1572 : b6;
 1573 : 89;
 1574 : b4;
 1575 : 14;
 1576 : 53;
 1577 : 03;
 1578 : 42;
 1579 : 04;
 157A : 74;
 157B : 06;
 157C : b3;
 157D : 10;
 157E : c4;
 157F : 11;
 1580 : a3;
 1581 : 0c;
 1582 : c4;
 1583 : 15;
 1584 : c3;
 1585 : 18;
 1586 : d4;
 1587 : 23;
 1588 : d4;
 1589 : 39;
 158A : d4;
 158B : 3e;
 158C : d4;
 158D : 44;
 158E : d4;
 158F : 68;
 1590 : e4;
 1591 : 6e;
 1592 : e4;
 1593 : 43;
 1594 : a7;
 1595 : 51;
 1596 : a8;
 1597 : f2;
 1598 : b6;
 1599 : b2;
 159A : c6;
 159B : 40;
 159C : d6;
 159D : 70;
 159E : d6;
 159F : 65;
 15A0 : d5;
 15A1 : 58;
 15A2 : c6;
 15A3 : 5f;
 15A4 : d6;
 15A5 : 4f;
 15A6 : c5;
 15A7 : 3e;
 15A8 : c3;
 15A9 : 15;
 15AA : a3;
 15AB : 06;
 15AC : 00;
 15AD : 01;
 15AE : b5;
 15AF : 0f;
 15B0 : d5;
 15B1 : 9c;
 15B2 : d5;
 15B3 : 4b;
 15B4 : a4;
 15B5 : 10;
 15B6 : c5;
 15B7 : 64;
 15B8 : c6;
 15B9 : c5;
 15BA : 35;
 15BB : 0b;
 15BC : 35;
 15BD : 0b;
 15BE : 35;
 15BF : 09;
 15C0 : 74;
 15C1 : 09;
 15C2 : 94;
 15C3 : 10;
 15C4 : 83;
 15C5 : 09;
 15C6 : 74;
 15C7 : 07;
 15C8 : 65;
 15C9 : 07;
 15CA : 63;
 15CB : 05;
 15CC : 74;
 15CD : 09;
 15CE : 96;
 15CF : 1d;
 15D0 : 85;
 15D1 : 14;
 15D2 : 85;
 15D3 : 12;
 15D4 : 23;
 15D5 : 04;
 15D6 : 75;
 15D7 : 0a;
 15D8 : a6;
 15D9 : 2b;
 15DA : b5;
 15DB : 2b;
 15DC : a5;
 15DD : 24;
 15DE : a5;
 15DF : 14;
 15E0 : a5;
 15E1 : 14;
 15E2 : b5;
 15E3 : 36;
 15E4 : c6;
 15E5 : 7d;
 15E6 : c6;
 15E7 : 71;
 15E8 : 95;
 15E9 : 11;
 15EA : 95;
 15EB : 0b;
 15EC : c6;
 15ED : 61;
 15EE : b6;
 15EF : 42;
 15F0 : c5;
 15F1 : 3f;
 15F2 : c5;
 15F3 : 3c;
 15F4 : a4;
 15F5 : 0c;
 15F6 : 74;
 15F7 : 04;
 15F8 : 42;
 15F9 : 04;
 15FA : a4;
 15FB : 07;
 15FC : c4;
 15FD : 1b;
 15FE : c4;
 15FF : 15;
 1600 : b3;
 1601 : 0d;
 1602 : c3;
 1603 : 19;
 1604 : c4;
 1605 : 18;
 1606 : d4;
 1607 : 22;
 1608 : d4;
 1609 : 30;
 160A : d4;
 160B : 3a;
 160C : d4;
 160D : 35;
 160E : d3;
 160F : 35;
 1610 : e4;
 1611 : 52;
 1612 : d4;
 1613 : 61;
 1614 : b6;
 1615 : 3e;
 1616 : b7;
 1617 : c2;
 1618 : c6;
 1619 : 5c;
 161A : d6;
 161B : 86;
 161C : c6;
 161D : c6;
 161E : c7;
 161F : c6;
 1620 : c6;
 1621 : c5;
 1622 : d6;
 1623 : 6e;
 1624 : c5;
 1625 : 70;
 1626 : b5;
 1627 : 12;
 1628 : c4;
 1629 : 14;
 162A : 74;
 162B : 04;
 162C : 00;
 162D : 02;
 162E : 74;
 162F : 04;
 1630 : d5;
 1631 : 75;
 1632 : d5;
 1633 : a5;
 1634 : d5;
 1635 : 8e;
 1636 : d6;
 1637 : ab;
 1638 : d6;
 1639 : b0;
 163A : 35;
 163B : 0c;
 163C : 35;
 163D : 0b;
 163E : 46;
 163F : 07;
 1640 : 84;
 1641 : 0a;
 1642 : 74;
 1643 : 0a;
 1644 : 74;
 1645 : 09;
 1646 : 54;
 1647 : 07;
 1648 : 74;
 1649 : 08;
 164A : 65;
 164B : 07;
 164C : 86;
 164D : 15;
 164E : 86;
 164F : 24;
 1650 : 54;
 1651 : 0a;
 1652 : 75;
 1653 : 0e;
 1654 : 24;
 1655 : 03;
 1656 : 65;
 1657 : 09;
 1658 : a6;
 1659 : 29;
 165A : a5;
 165B : 21;
 165C : 42;
 165D : 04;
 165E : 00;
 165F : 02;
 1660 : 45;
 1661 : 04;
 1662 : 65;
 1663 : 07;
 1664 : a6;
 1665 : 44;
 1666 : b6;
 1667 : 61;
 1668 : c5;
 1669 : 3a;
 166A : b4;
 166B : 15;
 166C : a5;
 166D : 0d;
 166E : a5;
 166F : 07;
 1670 : c5;
 1671 : 24;
 1672 : c5;
 1673 : 24;
 1674 : b4;
 1675 : 10;
 1676 : 63;
 1677 : 05;
 1678 : 42;
 1679 : 04;
 167A : 74;
 167B : 04;
 167C : c4;
 167D : 1b;
 167E : b3;
 167F : 15;
 1680 : a4;
 1681 : 0a;
 1682 : b4;
 1683 : 0d;
 1684 : a3;
 1685 : 0d;
 1686 : b4;
 1687 : 10;
 1688 : c4;
 1689 : 1c;
 168A : c4;
 168B : 25;
 168C : d4;
 168D : 37;
 168E : d4;
 168F : 4f;
 1690 : d4;
 1691 : 3f;
 1692 : e5;
 1693 : 78;
 1694 : c5;
 1695 : 36;
 1696 : d5;
 1697 : 61;
 1698 : c5;
 1699 : 42;
 169A : c5;
 169B : 44;
 169C : b5;
 169D : 21;
 169E : b5;
 169F : 14;
 16A0 : c5;
 16A1 : 2f;
 16A2 : d6;
 16A3 : 88;
 16A4 : c6;
 16A5 : 4e;
 16A6 : 00;
 16A7 : 02;
 16A8 : 24;
 16A9 : 03;
 16AA : 00;
 16AB : 02;
 16AC : b4;
 16AD : 0b;
 16AE : d5;
 16AF : 57;
 16B0 : d5;
 16B1 : 9e;
 16B2 : d6;
 16B3 : ac;
 16B4 : d6;
 16B5 : ac;
 16B6 : c5;
 16B7 : 92;
 16B8 : b5;
 16B9 : 1a;
 16BA : 35;
 16BB : 0b;
 16BC : 35;
 16BD : 0b;
 16BE : 65;
 16BF : 09;
 16C0 : 84;
 16C1 : 0b;
 16C2 : 44;
 16C3 : 07;
 16C4 : 65;
 16C5 : 07;
 16C6 : 54;
 16C7 : 07;
 16C8 : 84;
 16C9 : 0b;
 16CA : 84;
 16CB : 0b;
 16CC : 65;
 16CD : 0d;
 16CE : 65;
 16CF : 12;
 16D0 : 43;
 16D1 : 06;
 16D2 : 65;
 16D3 : 0e;
 16D4 : 65;
 16D5 : 0e;
 16D6 : 42;
 16D7 : 04;
 16D8 : 75;
 16D9 : 0b;
 16DA : 96;
 16DB : 22;
 16DC : 96;
 16DD : 10;
 16DE : a6;
 16DF : 29;
 16E0 : a6;
 16E1 : 36;
 16E2 : 96;
 16E3 : 2a;
 16E4 : 85;
 16E5 : 18;
 16E6 : 65;
 16E7 : 09;
 16E8 : b6;
 16E9 : 3a;
 16EA : c6;
 16EB : 58;
 16EC : b5;
 16ED : 28;
 16EE : c5;
 16EF : 31;
 16F0 : c5;
 16F1 : 37;
 16F2 : c5;
 16F3 : 36;
 16F4 : b4;
 16F5 : 0f;
 16F6 : 74;
 16F7 : 04;
 16F8 : 63;
 16F9 : 05;
 16FA : b4;
 16FB : 0b;
 16FC : b4;
 16FD : 0d;
 16FE : a4;
 16FF : 0a;
 1700 : a4;
 1701 : 09;
 1702 : 94;
 1703 : 08;
 1704 : a4;
 1705 : 0a;
 1706 : b4;
 1707 : 10;
 1708 : c4;
 1709 : 15;
 170A : c4;
 170B : 1e;
 170C : d4;
 170D : 27;
 170E : d4;
 170F : 2f;
 1710 : d4;
 1711 : 2b;
 1712 : e4;
 1713 : 58;
 1714 : d4;
 1715 : 34;
 1716 : c4;
 1717 : 2f;
 1718 : c5;
 1719 : 61;
 171A : c6;
 171B : 30;
 171C : 00;
 171D : 02;
 171E : c5;
 171F : 13;
 1720 : c6;
 1721 : 46;
 1722 : c6;
 1723 : b0;
 1724 : c6;
 1725 : 49;
 1726 : 73;
 1727 : 03;
 1728 : 24;
 1729 : 03;
 172A : 53;
 172B : 03;
 172C : d4;
 172D : 3f;
 172E : d5;
 172F : 95;
 1730 : d5;
 1731 : 90;
 1732 : d5;
 1733 : 44;
 1734 : d5;
 1735 : 3f;
 1736 : c5;
 1737 : 88;
 1738 : b4;
 1739 : 18;
 173A : 45;
 173B : 0c;
 173C : 44;
 173D : 09;
 173E : 74;
 173F : 09;
 1740 : 64;
 1741 : 09;
 1742 : 54;
 1743 : 07;
 1744 : 65;
 1745 : 07;
 1746 : 54;
 1747 : 07;
 1748 : 74;
 1749 : 08;
 174A : 84;
 174B : 0a;
 174C : 54;
 174D : 06;
 174E : 54;
 174F : 09;
 1750 : 45;
 1751 : 04;
 1752 : 76;
 1753 : 10;
 1754 : 66;
 1755 : 1e;
 1756 : 23;
 1757 : 04;
 1758 : 54;
 1759 : 07;
 175A : 97;
 175B : 32;
 175C : 97;
 175D : 55;
 175E : 96;
 175F : 44;
 1760 : 86;
 1761 : 2c;
 1762 : 86;
 1763 : 35;
 1764 : 86;
 1765 : 36;
 1766 : 85;
 1767 : 13;
 1768 : 95;
 1769 : 15;
 176A : 75;
 176B : 0d;
 176C : a6;
 176D : 28;
 176E : b5;
 176F : 30;
 1770 : a5;
 1771 : 12;
 1772 : b5;
 1773 : 18;
 1774 : a3;
 1775 : 0d;
 1776 : 64;
 1777 : 06;
 1778 : c3;
 1779 : 10;
 177A : c5;
 177B : 25;
 177C : a4;
 177D : 0c;
 177E : 72;
 177F : 04;
 1780 : 92;
 1781 : 05;
 1782 : a4;
 1783 : 09;
 1784 : a3;
 1785 : 0e;
 1786 : b4;
 1787 : 10;
 1788 : b4;
 1789 : 10;
 178A : b3;
 178B : 15;
 178C : c3;
 178D : 18;
 178E : c4;
 178F : 1b;
 1790 : d4;
 1791 : 2b;
 1792 : d3;
 1793 : 2d;
 1794 : d4;
 1795 : 3e;
 1796 : c5;
 1797 : 2b;
 1798 : d5;
 1799 : 28;
 179A : c5;
 179B : 6b;
 179C : c6;
 179D : 72;
 179E : c6;
 179F : a9;
 17A0 : b7;
 17A1 : c7;
 17A2 : c7;
 17A3 : d3;
 17A4 : c6;
 17A5 : 5f;
 17A6 : d5;
 17A7 : 3f;
 17A8 : d4;
 17A9 : 31;
 17AA : d4;
 17AB : 3b;
 17AC : d4;
 17AD : 7a;
 17AE : d5;
 17AF : 83;
 17B0 : c4;
 17B1 : 1b;
 17B2 : 00;
 17B3 : 02;
 17B4 : 00;
 17B5 : 03;
 17B6 : c5;
 17B7 : 3a;
 17B8 : c5;
 17B9 : 64;
 17BA : 45;
 17BB : 0c;
 17BC : 44;
 17BD : 09;
 17BE : 74;
 17BF : 0b;
 17C0 : 54;
 17C1 : 08;
 17C2 : 64;
 17C3 : 08;
 17C4 : 55;
 17C5 : 07;
 17C6 : 44;
 17C7 : 07;
 17C8 : 66;
 17C9 : 06;
 17CA : 64;
 17CB : 08;
 17CC : 54;
 17CD : 09;
 17CE : 64;
 17CF : 0b;
 17D0 : 65;
 17D1 : 0d;
 17D2 : 66;
 17D3 : 3a;
 17D4 : 55;
 17D5 : 28;
 17D6 : 54;
 17D7 : 07;
 17D8 : 76;
 17D9 : 1f;
 17DA : 66;
 17DB : 2d;
 17DC : 65;
 17DD : 1c;
 17DE : 45;
 17DF : 0d;
 17E0 : 00;
 17E1 : 01;
 17E2 : 44;
 17E3 : 05;
 17E4 : 55;
 17E5 : 16;
 17E6 : 86;
 17E7 : 37;
 17E8 : 96;
 17E9 : 40;
 17EA : 86;
 17EB : 3f;
 17EC : a7;
 17ED : 6a;
 17EE : a5;
 17EF : 27;
 17F0 : a4;
 17F1 : 10;
 17F2 : b4;
 17F3 : 10;
 17F4 : 74;
 17F5 : 07;
 17F6 : 94;
 17F7 : 09;
 17F8 : c4;
 17F9 : 20;
 17FA : c5;
 17FB : 3a;
 17FC : 94;
 17FD : 09;
 17FE : 64;
 17FF : 04;
 1800 : a4;
 1801 : 07;
 1802 : a4;
 1803 : 0f;
 1804 : a3;
 1805 : 0d;
 1806 : a4;
 1807 : 0b;
 1808 : a4;
 1809 : 0d;
 180A : b4;
 180B : 11;
 180C : c4;
 180D : 16;
 180E : b3;
 180F : 12;
 1810 : c4;
 1811 : 1b;
 1812 : d5;
 1813 : 27;
 1814 : d4;
 1815 : 2d;
 1816 : c5;
 1817 : 3a;
 1818 : c6;
 1819 : 5c;
 181A : c6;
 181B : 61;
 181C : c7;
 181D : c3;
 181E : c7;
 181F : 70;
 1820 : b6;
 1821 : 61;
 1822 : b7;
 1823 : c8;
 1824 : c6;
 1825 : 3e;
 1826 : b3;
 1827 : 0c;
 1828 : e4;
 1829 : 47;
 182A : e5;
 182B : 7b;
 182C : d4;
 182D : 72;
 182E : d5;
 182F : 3c;
 1830 : 73;
 1831 : 03;
 1832 : 00;
 1833 : 02;
 1834 : 00;
 1835 : 03;
 1836 : 84;
 1837 : 0c;
 1838 : c6;
 1839 : 96;
 183A : 44;
 183B : 0a;
 183C : 75;
 183D : 0b;
 183E : 74;
 183F : 10;
 1840 : 54;
 1841 : 07;
 1842 : 54;
 1843 : 06;
 1844 : 55;
 1845 : 07;
 1846 : 54;
 1847 : 06;
 1848 : 84;
 1849 : 0a;
 184A : 65;
 184B : 09;
 184C : 74;
 184D : 09;
 184E : 74;
 184F : 08;
 1850 : 76;
 1851 : 1b;
 1852 : 66;
 1853 : 52;
 1854 : 76;
 1855 : 59;
 1856 : 76;
 1857 : 49;
 1858 : 66;
 1859 : 32;
 185A : 66;
 185B : 27;
 185C : 53;
 185D : 06;
 185E : 44;
 185F : 09;
 1860 : 65;
 1861 : 0f;
 1862 : 54;
 1863 : 06;
 1864 : 23;
 1865 : 04;
 1866 : 42;
 1867 : 04;
 1868 : 65;
 1869 : 23;
 186A : 76;
 186B : 59;
 186C : 86;
 186D : 46;
 186E : a6;
 186F : 2b;
 1870 : a5;
 1871 : 19;
 1872 : a4;
 1873 : 0c;
 1874 : a4;
 1875 : 14;
 1876 : b4;
 1877 : 22;
 1878 : c4;
 1879 : 1a;
 187A : c5;
 187B : 35;
 187C : b4;
 187D : 17;
 187E : 93;
 187F : 05;
 1880 : 83;
 1881 : 07;
 1882 : 93;
 1883 : 0b;
 1884 : a4;
 1885 : 0b;
 1886 : b4;
 1887 : 11;
 1888 : b4;
 1889 : 13;
 188A : b4;
 188B : 16;
 188C : c4;
 188D : 1f;
 188E : c4;
 188F : 19;
 1890 : c4;
 1891 : 13;
 1892 : c4;
 1893 : 1d;
 1894 : d4;
 1895 : 36;
 1896 : d5;
 1897 : 6b;
 1898 : c7;
 1899 : 8c;
 189A : b6;
 189B : a5;
 189C : b7;
 189D : 96;
 189E : a7;
 189F : bf;
 18A0 : a6;
 18A1 : 35;
 18A2 : c6;
 18A3 : 58;
 18A4 : a5;
 18A5 : 15;
 18A6 : 00;
 18A7 : 02;
 18A8 : 45;
 18A9 : 04;
 18AA : d4;
 18AB : 36;
 18AC : d4;
 18AD : 47;
 18AE : 73;
 18AF : 03;
 18B0 : 24;
 18B1 : 03;
 18B2 : d4;
 18B3 : 1c;
 18B4 : c3;
 18B5 : 19;
 18B6 : 53;
 18B7 : 07;
 18B8 : c5;
 18B9 : 61;
 18BA : 45;
 18BB : 06;
 18BC : 76;
 18BD : 0c;
 18BE : 65;
 18BF : 0f;
 18C0 : 65;
 18C1 : 07;
 18C2 : 54;
 18C3 : 06;
 18C4 : 55;
 18C5 : 07;
 18C6 : 54;
 18C7 : 06;
 18C8 : 94;
 18C9 : 0e;
 18CA : 74;
 18CB : 0a;
 18CC : 64;
 18CD : 09;
 18CE : 84;
 18CF : 0a;
 18D0 : 75;
 18D1 : 10;
 18D2 : 66;
 18D3 : 42;
 18D4 : 66;
 18D5 : 6d;
 18D6 : 76;
 18D7 : 75;
 18D8 : 44;
 18D9 : 10;
 18DA : 66;
 18DB : 10;
 18DC : 76;
 18DD : 3c;
 18DE : 76;
 18DF : 44;
 18E0 : 76;
 18E1 : 4f;
 18E2 : 75;
 18E3 : 46;
 18E4 : 76;
 18E5 : 3e;
 18E6 : 66;
 18E7 : 40;
 18E8 : 45;
 18E9 : 23;
 18EA : 45;
 18EB : 13;
 18EC : 55;
 18ED : 11;
 18EE : 95;
 18EF : 1c;
 18F0 : 95;
 18F1 : 12;
 18F2 : 84;
 18F3 : 0a;
 18F4 : b5;
 18F5 : 1e;
 18F6 : b4;
 18F7 : 20;
 18F8 : b4;
 18F9 : 1f;
 18FA : b4;
 18FB : 24;
 18FC : c5;
 18FD : 24;
 18FE : a4;
 18FF : 0b;
 1900 : 73;
 1901 : 05;
 1902 : 74;
 1903 : 06;
 1904 : 94;
 1905 : 0c;
 1906 : b5;
 1907 : 17;
 1908 : c5;
 1909 : 20;
 190A : c6;
 190B : 36;
 190C : c6;
 190D : 52;
 190E : c5;
 190F : 37;
 1910 : c5;
 1911 : 21;
 1912 : c4;
 1913 : 23;
 1914 : d5;
 1915 : 47;
 1916 : d6;
 1917 : 93;
 1918 : c6;
 1919 : 62;
 191A : b7;
 191B : a1;
 191C : 97;
 191D : cf;
 191E : 97;
 191F : d2;
 1920 : a6;
 1921 : 5b;
 1922 : a6;
 1923 : 2b;
 1924 : 96;
 1925 : 1d;
 1926 : 24;
 1927 : 03;
 1928 : 45;
 1929 : 02;
 192A : b4;
 192B : 0d;
 192C : d4;
 192D : 47;
 192E : 62;
 192F : 04;
 1930 : b4;
 1931 : 0b;
 1932 : d4;
 1933 : 75;
 1934 : d5;
 1935 : 7e;
 1936 : c5;
 1937 : 2c;
 1938 : 64;
 1939 : 09;
 193A : 34;
 193B : 05;
 193C : 75;
 193D : 0d;
 193E : 75;
 193F : 0f;
 1940 : 54;
 1941 : 07;
 1942 : 54;
 1943 : 07;
 1944 : 55;
 1945 : 07;
 1946 : 44;
 1947 : 05;
 1948 : 84;
 1949 : 0b;
 194A : 74;
 194B : 0d;
 194C : 75;
 194D : 0d;
 194E : 85;
 194F : 10;
 1950 : 76;
 1951 : 20;
 1952 : 66;
 1953 : 3a;
 1954 : 66;
 1955 : 5c;
 1956 : 66;
 1957 : 64;
 1958 : 54;
 1959 : 11;
 195A : 24;
 195B : 03;
 195C : 76;
 195D : 4e;
 195E : 66;
 195F : 4f;
 1960 : 35;
 1961 : 09;
 1962 : 55;
 1963 : 17;
 1964 : 66;
 1965 : 4e;
 1966 : 65;
 1967 : 67;
 1968 : 44;
 1969 : 18;
 196A : 44;
 196B : 0b;
 196C : 64;
 196D : 0d;
 196E : a6;
 196F : 20;
 1970 : a5;
 1971 : 12;
 1972 : 83;
 1973 : 09;
 1974 : b5;
 1975 : 16;
 1976 : c5;
 1977 : 22;
 1978 : c4;
 1979 : 28;
 197A : c5;
 197B : 22;
 197C : a6;
 197D : 40;
 197E : 95;
 197F : 2c;
 1980 : 94;
 1981 : 06;
 1982 : a4;
 1983 : 0d;
 1984 : b5;
 1985 : 29;
 1986 : b6;
 1987 : 51;
 1988 : b7;
 1989 : 7e;
 198A : a7;
 198B : a4;
 198C : a7;
 198D : bb;
 198E : b7;
 198F : 99;
 1990 : b6;
 1991 : 61;
 1992 : c4;
 1993 : 37;
 1994 : d5;
 1995 : 3e;
 1996 : d6;
 1997 : 89;
 1998 : d6;
 1999 : 7a;
 199A : a6;
 199B : 5e;
 199C : 96;
 199D : 78;
 199E : 97;
 199F : ec;
 19A0 : 97;
 19A1 : 75;
 19A2 : b5;
 19A3 : 51;
 19A4 : c6;
 19A5 : 4d;
 19A6 : 53;
 19A7 : 03;
 19A8 : 74;
 19A9 : 04;
 19AA : 73;
 19AB : 03;
 19AC : d5;
 19AD : 47;
 19AE : c4;
 19AF : 16;
 19B0 : d4;
 19B1 : 15;
 19B2 : d4;
 19B3 : 75;
 19B4 : d5;
 19B5 : 6b;
 19B6 : c5;
 19B7 : 5b;
 19B8 : 53;
 19B9 : 06;
 19BA : 75;
 19BB : 0b;
 19BC : 95;
 19BD : 15;
 19BE : 75;
 19BF : 10;
 19C0 : 64;
 19C1 : 09;
 19C2 : 54;
 19C3 : 07;
 19C4 : 56;
 19C5 : 06;
 19C6 : 34;
 19C7 : 05;
 19C8 : 84;
 19C9 : 09;
 19CA : a5;
 19CB : 15;
 19CC : 95;
 19CD : 1b;
 19CE : 86;
 19CF : 12;
 19D0 : 76;
 19D1 : 29;
 19D2 : 45;
 19D3 : 1d;
 19D4 : 55;
 19D5 : 1e;
 19D6 : 55;
 19D7 : 15;
 19D8 : 44;
 19D9 : 08;
 19DA : 24;
 19DB : 03;
 19DC : 66;
 19DD : 3c;
 19DE : 65;
 19DF : 44;
 19E0 : 23;
 19E1 : 04;
 19E2 : 24;
 19E3 : 03;
 19E4 : 45;
 19E5 : 20;
 19E6 : 55;
 19E7 : 4d;
 19E8 : 45;
 19E9 : 24;
 19EA : 54;
 19EB : 19;
 19EC : 76;
 19ED : 3a;
 19EE : 96;
 19EF : 39;
 19F0 : 94;
 19F1 : 11;
 19F2 : b5;
 19F3 : 12;
 19F4 : b5;
 19F5 : 1a;
 19F6 : b5;
 19F7 : 21;
 19F8 : c4;
 19F9 : 22;
 19FA : c6;
 19FB : 55;
 19FC : 86;
 19FD : 37;
 19FE : 75;
 19FF : 16;
 1A00 : a5;
 1A01 : 14;
 1A02 : a5;
 1A03 : 11;
 1A04 : 95;
 1A05 : 19;
 1A06 : 86;
 1A07 : 3b;
 1A08 : 87;
 1A09 : 8f;
 1A0A : 87;
 1A0B : 99;
 1A0C : 87;
 1A0D : a9;
 1A0E : 87;
 1A0F : b9;
 1A10 : 97;
 1A11 : af;
 1A12 : b6;
 1A13 : 70;
 1A14 : c5;
 1A15 : 57;
 1A16 : b7;
 1A17 : a2;
 1A18 : c5;
 1A19 : 6e;
 1A1A : b5;
 1A1B : 37;
 1A1C : 97;
 1A1D : 5b;
 1A1E : 97;
 1A1F : b0;
 1A20 : 97;
 1A21 : bf;
 1A22 : b7;
 1A23 : 9b;
 1A24 : d6;
 1A25 : a4;
 1A26 : d5;
 1A27 : 2c;
 1A28 : 64;
 1A29 : 04;
 1A2A : 07;
 1A2B : 02;
 1A2C : d4;
 1A2D : 21;
 1A2E : c4;
 1A2F : 22;
 1A30 : d4;
 1A31 : 18;
 1A32 : d4;
 1A33 : 5c;
 1A34 : 74;
 1A35 : 06;
 1A36 : b4;
 1A37 : 22;
 1A38 : b4;
 1A39 : 1b;
 1A3A : 75;
 1A3B : 18;
 1A3C : 65;
 1A3D : 10;
 1A3E : 64;
 1A3F : 0d;
 1A40 : 74;
 1A41 : 0b;
 1A42 : 65;
 1A43 : 07;
 1A44 : 44;
 1A45 : 07;
 1A46 : 34;
 1A47 : 05;
 1A48 : 65;
 1A49 : 07;
 1A4A : 85;
 1A4B : 0e;
 1A4C : 95;
 1A4D : 23;
 1A4E : 96;
 1A4F : 1e;
 1A50 : 55;
 1A51 : 1a;
 1A52 : 44;
 1A53 : 09;
 1A54 : 56;
 1A55 : 03;
 1A56 : 64;
 1A57 : 11;
 1A58 : 34;
 1A59 : 0b;
 1A5A : 23;
 1A5B : 04;
 1A5C : 65;
 1A5D : 15;
 1A5E : 65;
 1A5F : 37;
 1A60 : 54;
 1A61 : 13;
 1A62 : 55;
 1A63 : 1e;
 1A64 : 43;
 1A65 : 15;
 1A66 : 45;
 1A67 : 21;
 1A68 : 45;
 1A69 : 42;
 1A6A : 55;
 1A6B : 3c;
 1A6C : 76;
 1A6D : 47;
 1A6E : 65;
 1A6F : 29;
 1A70 : a4;
 1A71 : 10;
 1A72 : b4;
 1A73 : 1d;
 1A74 : b4;
 1A75 : 1a;
 1A76 : b4;
 1A77 : 20;
 1A78 : c5;
 1A79 : 34;
 1A7A : c6;
 1A7B : 7b;
 1A7C : 86;
 1A7D : 70;
 1A7E : 23;
 1A7F : 04;
 1A80 : 54;
 1A81 : 06;
 1A82 : 42;
 1A83 : 04;
 1A84 : 42;
 1A85 : 04;
 1A86 : 43;
 1A87 : 09;
 1A88 : 43;
 1A89 : 0f;
 1A8A : 43;
 1A8B : 14;
 1A8C : 54;
 1A8D : 14;
 1A8E : 54;
 1A8F : 20;
 1A90 : 55;
 1A91 : 1d;
 1A92 : 65;
 1A93 : 13;
 1A94 : b5;
 1A95 : 34;
 1A96 : a7;
 1A97 : a8;
 1A98 : c6;
 1A99 : 9b;
 1A9A : c5;
 1A9B : 46;
 1A9C : 53;
 1A9D : 06;
 1A9E : 97;
 1A9F : 88;
 1AA0 : 97;
 1AA1 : d9;
 1AA2 : 96;
 1AA3 : 1a;
 1AA4 : c4;
 1AA5 : 17;
 1AA6 : d5;
 1AA7 : 72;
 1AA8 : c5;
 1AA9 : 1a;
 1AAA : 20;
 1AAB : 03;
 1AAC : c4;
 1AAD : 1a;
 1AAE : d4;
 1AAF : 31;
 1AB0 : 62;
 1AB1 : 04;
 1AB2 : d4;
 1AB3 : 35;
 1AB4 : b4;
 1AB5 : 10;
 1AB6 : a4;
 1AB7 : 11;
 1AB8 : c5;
 1AB9 : 5f;
 1ABA : 65;
 1ABB : 12;
 1ABC : 34;
 1ABD : 05;
 1ABE : 45;
 1ABF : 06;
 1AC0 : 54;
 1AC1 : 06;
 1AC2 : 55;
 1AC3 : 07;
 1AC4 : 54;
 1AC5 : 06;
 1AC6 : 45;
 1AC7 : 04;
 1AC8 : 54;
 1AC9 : 06;
 1ACA : 76;
 1ACB : 10;
 1ACC : 96;
 1ACD : 2c;
 1ACE : 96;
 1ACF : 1e;
 1AD0 : 44;
 1AD1 : 0a;
 1AD2 : 55;
 1AD3 : 11;
 1AD4 : 42;
 1AD5 : 04;
 1AD6 : 64;
 1AD7 : 0c;
 1AD8 : 54;
 1AD9 : 0e;
 1ADA : 65;
 1ADB : 19;
 1ADC : 65;
 1ADD : 1a;
 1ADE : 87;
 1ADF : 1a;
 1AE0 : 86;
 1AE1 : 23;
 1AE2 : 55;
 1AE3 : 31;
 1AE4 : 55;
 1AE5 : 1c;
 1AE6 : 44;
 1AE7 : 1a;
 1AE8 : 44;
 1AE9 : 18;
 1AEA : 55;
 1AEB : 25;
 1AEC : 76;
 1AED : 39;
 1AEE : 86;
 1AEF : 47;
 1AF0 : 95;
 1AF1 : 0b;
 1AF2 : 83;
 1AF3 : 07;
 1AF4 : b5;
 1AF5 : 12;
 1AF6 : c5;
 1AF7 : 2f;
 1AF8 : c6;
 1AF9 : 54;
 1AFA : b6;
 1AFB : 88;
 1AFC : 87;
 1AFD : ba;
 1AFE : 66;
 1AFF : 39;
 1B00 : 00;
 1B01 : 01;
 1B02 : 45;
 1B03 : 02;
 1B04 : 45;
 1B05 : 02;
 1B06 : 63;
 1B07 : 06;
 1B08 : 74;
 1B09 : 0d;
 1B0A : 43;
 1B0B : 0c;
 1B0C : 43;
 1B0D : 07;
 1B0E : 73;
 1B0F : 0b;
 1B10 : 83;
 1B11 : 0c;
 1B12 : 20;
 1B13 : 03;
 1B14 : 75;
 1B15 : 1d;
 1B16 : a7;
 1B17 : c2;
 1B18 : d6;
 1B19 : 9b;
 1B1A : d6;
 1B1B : 65;
 1B1C : 96;
 1B1D : 58;
 1B1E : 87;
 1B1F : da;
 1B20 : 86;
 1B21 : 3c;
 1B22 : 00;
 1B23 : 01;
 1B24 : 00;
 1B25 : 02;
 1B26 : b4;
 1B27 : 0e;
 1B28 : d5;
 1B29 : 71;
 1B2A : d5;
 1B2B : 3b;
 1B2C : d4;
 1B2D : 4f;
 1B2E : d4;
 1B2F : 7b;
 1B30 : d4;
 1B31 : 21;
 1B32 : d4;
 1B33 : 1d;
 1B34 : d4;
 1B35 : 42;
 1B36 : c4;
 1B37 : 20;
 1B38 : d6;
 1B39 : 98;
 1B3A : 85;
 1B3B : 19;
 1B3C : 64;
 1B3D : 0d;
 1B3E : 54;
 1B3F : 06;
 1B40 : 23;
 1B41 : 04;
 1B42 : 42;
 1B43 : 04;
 1B44 : 45;
 1B45 : 04;
 1B46 : 55;
 1B47 : 07;
 1B48 : 75;
 1B49 : 10;
 1B4A : 85;
 1B4B : 11;
 1B4C : 96;
 1B4D : 22;
 1B4E : 95;
 1B4F : 23;
 1B50 : 75;
 1B51 : 0c;
 1B52 : 65;
 1B53 : 0e;
 1B54 : 63;
 1B55 : 05;
 1B56 : 56;
 1B57 : 06;
 1B58 : 77;
 1B59 : 3b;
 1B5A : 77;
 1B5B : 80;
 1B5C : 76;
 1B5D : 75;
 1B5E : 66;
 1B5F : 1c;
 1B60 : 45;
 1B61 : 04;
 1B62 : 65;
 1B63 : 16;
 1B64 : 55;
 1B65 : 52;
 1B66 : 34;
 1B67 : 32;
 1B68 : 34;
 1B69 : 09;
 1B6A : 44;
 1B6B : 10;
 1B6C : 66;
 1B6D : 39;
 1B6E : 87;
 1B6F : a4;
[...]
 397E : 00;
 397F : 00;
 3980 : 00;
 3981 : 00;
 3982 : 00;
 3983 : 00;
 3984 : 00;
 3985 : 00;
 3986 : 00;
 3987 : 00;
 3988 : 00;
 3989 : 00;
 398A : 00;
 398B : 00;
 398C : 00;
 398D : 00;
 398E : 00;
 398F : 00;
 3990 : 00;
 3991 : 00;
 3992 : 00;
 3993 : 00;
 3994 : 00;
 3995 : 00;
 3996 : 00;
 3997 : 00;
 3998 : 00;
 3999 : 00;
 399A : 00;
 399B : 00;
 399C : 00;
 399D : 00;
 399E : 00;
 399F : 00;
 39A0 : 00;
 39A1 : 00;
 39A2 : 00;
 39A3 : 00;
 39A4 : 00;
 39A5 : 00;
 39A6 : 00;
 39A7 : 00;
 39A8 : 00;
 39A9 : 00;
 39AA : 00;
 39AB : 00;
 39AC : 00;
 39AD : 00;
 39AE : 00;
 39AF : 00;
 39B0 : 00;
 39B1 : 00;
 39B2 : 00;
 39B3 : 00;
 39B4 : 00;
 39B5 : 00;
 39B6 : 00;
 39B7 : 00;
 39B8 : 00;
 39B9 : 00;
 39BA : 00;
 39BB : 00;
 39BC : 00;
 39BD : 00;
 39BE : 00;
 39BF : 00;
 39C0 : 00;
 39C1 : 00;
 39C2 : 00;
 39C3 : 00;
 39C4 : 00;
 39C5 : 00;
 39C6 : 00;
 39C7 : 00;
 39C8 : 00;
 39C9 : 00;
 39CA : 00;
 39CB : 00;
 39CC : 00;
 39CD : 00;
 39CE : 00;
 39CF : 00;
 39D0 : 00;
 39D1 : 00;
 39D2 : 00;
 39D3 : 00;
 39D4 : 00;
 39D5 : 00;
 39D6 : 00;
 39D7 : 00;
 39D8 : 00;
 39D9 : 00;
 39DA : 00;
 39DB : 00;
 39DC : 00;
 39DD : 00;
 39DE : 00;
 39DF : 00;
 39E0 : 00;
 39E1 : 00;
 39E2 : 00;
 39E3 : 00;
 39E4 : 00;
 39E5 : 00;
 39E6 : 00;
 39E7 : 00;
 39E8 : 00;
 39E9 : 00;
 39EA : 00;
 39EB : 00;
 39EC : 00;
 39ED : 00;
 39EE : 00;
 39EF : 00;
 39F0 : 00;
 39F1 : 00;
 39F2 : 00;
 39F3 : 00;
 39F4 : 00;
 39F5 : 00;
 39F6 : 00;
 39F7 : 00;
 39F8 : 00;
 39F9 : 00;
 39FA : 00;
 39FB : 00;
 39FC : 00;
 39FD : 00;
 39FE : 00;
 39FF : 00;
 3A00 : 00;
 3A01 : 00;
 3A02 : 00;
 3A03 : 00;
 3A04 : 00;
 3A05 : 00;
 3A06 : 00;
 3A07 : 00;
 3A08 : 00;
 3A09 : 00;
 3A0A : 00;
 3A0B : 00;
 3A0C : 00;
 3A0D : 00;
 3A0E : 00;
 3A0F : 00;
 3A10 : 00;
 3A11 : 00;
 3A12 : 00;
 3A13 : 00;
 3A14 : 00;
 3A15 : 00;
 3A16 : 00;
 3A17 : 00;
 3A18 : 00;
 3A19 : 00;
 3A1A : 00;
 3A1B : 00;
 3A1C : 00;
 3A1D : 00;
 3A1E : 00;
 3A1F : 00;
 3A20 : 00;
 3A21 : 00;
 3A22 : 00;
 3A23 : 00;
 3A24 : 00;
 3A25 : 00;
 3A26 : 00;
 3A27 : 00;
 3A28 : 00;
 3A29 : 00;
 3A2A : 00;
 3A2B : 00;
 3A2C : 00;
 3A2D : 00;
 3A2E : 00;
 3A2F : 00;
 3A30 : 00;
 3A31 : 00;
 3A32 : 00;
 3A33 : 00;
 3A34 : 00;
 3A35 : 00;
 3A36 : 00;
 3A37 : 00;
 3A38 : 00;
 3A39 : 00;
 3A3A : 00;
 3A3B : 00;
 3A3C : 00;
 3A3D : 00;
 3A3E : 00;
 3A3F : 00;
 3A40 : 00;
 3A41 : 00;
 3A42 : 00;
 3A43 : 00;
 3A44 : 00;
 3A45 : 00;
 3A46 : 00;
 3A47 : 00;
 3A48 : 00;
 3A49 : 00;
 3A4A : 00;
 3A4B : 00;
 3A4C : 00;
 3A4D : 00;
 3A4E : 00;
 3A4F : 00;
 3A50 : 00;
 3A51 : 00;
 3A52 : 00;
 3A53 : 00;
 3A54 : 00;
 3A55 : 00;
 3A56 : 00;
 3A57 : 00;
 3A58 : 00;
 3A59 : 00;
 3A5A : 00;
 3A5B : 00;
 3A5C : 00;
 3A5D : 00;
 3A5E : 00;
 3A5F : 00;
 3A60 : 00;
 3A61 : 00;
 3A62 : 00;
 3A63 : 00;
 3A64 : 00;
 3A65 : 00;
 3A66 : 00;
 3A67 : 00;
 3A68 : 00;
 3A69 : 00;
 3A6A : 00;
 3A6B : 00;
 3A6C : 00;
 3A6D : 00;
 3A6E : 00;
 3A6F : 00;
 3A70 : 00;
 3A71 : 00;
 3A72 : 00;
 3A73 : 00;
 3A74 : 00;
 3A75 : 00;
 3A76 : 00;
 3A77 : 00;
 3A78 : 00;
 3A79 : 00;
 3A7A : 00;
 3A7B : 00;
 3A7C : 00;
 3A7D : 00;
 3A7E : 00;
 3A7F : 00;
 3A80 : 00;
 3A81 : 00;
 3A82 : 00;
 3A83 : 00;
 3A84 : 00;
 3A85 : 00;
 3A86 : 00;
 3A87 : 00;
 3A88 : 00;
 3A89 : 00;
 3A8A : 00;
 3A8B : 00;
 3A8C : 00;
 3A8D : 00;
 3A8E : 00;
 3A8F : 00;
 3A90 : 00;
 3A91 : 00;
 3A92 : 00;
 3A93 : 00;
 3A94 : 00;
 3A95 : 00;
 3A96 : 00;
 3A97 : 00;
 3A98 : 00;
 3A99 : 00;
 3A9A : 00;
 3A9B : 00;
 3A9C : 00;
 3A9D : 00;
 3A9E : 00;
 3A9F : 00;
 3AA0 : 00;
 3AA1 : 00;
 3AA2 : 00;
 3AA3 : 00;
 3AA4 : 00;
 3AA5 : 00;
 3AA6 : 00;
 3AA7 : 00;
 3AA8 : 00;
 3AA9 : 00;
 3AAA : 00;
 3AAB : 00;
 3AAC : 00;
 3AAD : 00;
 3AAE : 00;
 3AAF : 00;
 3AB0 : 00;
 3AB1 : 00;
 3AB2 : 00;
 3AB3 : 00;
 3AB4 : 00;
 3AB5 : 00;
 3AB6 : 00;
 3AB7 : 00;
 3AB8 : 00;
 3AB9 : 00;
 3ABA : 00;
 3ABB : 00;
 3ABC : 00;
 3ABD : 00;
 3ABE : 00;
 3ABF : 00;
 3AC0 : 00;
 3AC1 : 00;
 3AC2 : 00;
 3AC3 : 00;
 3AC4 : 00;
 3AC5 : 00;
 3AC6 : 00;
 3AC7 : 00;
 3AC8 : 00;
 3AC9 : 00;
 3ACA : 00;
 3ACB : 00;
 3ACC : 00;
 3ACD : 00;
 3ACE : 00;
 3ACF : 00;
 3AD0 : 00;
 3AD1 : 00;
 3AD2 : 00;
 3AD3 : 00;
 3AD4 : 00;
 3AD5 : 00;
 3AD6 : 00;
 3AD7 : 00;
 3AD8 : 00;
 3AD9 : 00;
 3ADA : 00;
 3ADB : 00;
 3ADC : 00;
 3ADD : 00;
 3ADE : 00;
 3ADF : 00;
 3AE0 : 00;
 3AE1 : 00;
 3AE2 : 00;
 3AE3 : 00;
 3AE4 : 00;
 3AE5 : 00;
 3AE6 : 00;
 3AE7 : 00;
 3AE8 : 00;
 3AE9 : 00;
 3AEA : 00;
 3AEB : 00;
 3AEC : 00;
 3AED : 00;
 3AEE : 00;
 3AEF : 00;
 3AF0 : 00;
 3AF1 : 00;
 3AF2 : 00;
 3AF3 : 00;
 3AF4 : 00;
 3AF5 : 00;
 3AF6 : 00;
 3AF7 : 00;
 3AF8 : 00;
 3AF9 : 00;
 3AFA : 00;
 3AFB : 00;
 3AFC : 00;
 3AFD : 00;
 3AFE : 00;
 3AFF : 00;
 3B00 : 00;
 3B01 : 00;
 3B02 : 00;
 3B03 : 00;
 3B04 : 00;
 3B05 : 00;
 3B06 : 00;
 3B07 : 00;
 3B08 : 00;
 3B09 : 00;
 3B0A : 00;
 3B0B : 00;
 3B0C : 00;
 3B0D : 00;
 3B0E : 00;
 3B0F : 00;
 3B10 : 00;
 3B11 : 00;
 3B12 : 00;
 3B13 : 00;
 3B14 : 00;
 3B15 : 00;
 3B16 : 00;
 3B17 : 00;
 3B18 : 00;
 3B19 : 00;
 3B1A : 00;
 3B1B : 00;
 3B1C : 00;
 3B1D : 00;
 3B1E : 00;
 3B1F : 00;
 3B20 : 00;
 3B21 : 00;
 3B22 : 00;
 3B23 : 00;
 3B24 : 00;
 3B25 : 00;
 3B26 : 00;
 3B27 : 00;
 3B28 : 00;
 3B29 : 00;
 3B2A : 00;
 3B2B : 00;
 3B2C : 00;
 3B2D : 00;
 3B2E : 00;
 3B2F : 00;
 3B30 : 00;
 3B31 : 00;
 3B32 : 00;
 3B33 : 00;
 3B34 : 00;
 3B35 : 00;
 3B36 : 00;
 3B37 : 00;
 3B38 : 00;
 3B39 : 00;
 3B3A : 00;
 3B3B : 00;
 3B3C : 00;
 3B3D : 00;
 3B3E : 00;
 3B3F : 00;
 3B40 : 00;
 3B41 : 00;
 3B42 : 00;
 3B43 : 00;
 3B44 : 00;
 3B45 : 00;
 3B46 : 00;
 3B47 : 00;
 3B48 : 00;
 3B49 : 00;
 3B4A : 00;
 3B4B : 00;
 3B4C : 00;
 3B4D : 00;
 3B4E : 00;
 3B4F : 00;
 3B50 : 00;
 3B51 : 00;
 3B52 : 00;
 3B53 : 00;
 3B54 : 00;
 3B55 : 00;
 3B56 : 00;
 3B57 : 00;
 3B58 : 00;
 3B59 : 00;
 3B5A : 00;
 3B5B : 00;
 3B5C : 00;
 3B5D : 00;
 3B5E : 00;
 3B5F : 00;
 3B60 : 00;
 3B61 : 00;
 3B62 : 00;
 3B63 : 00;
 3B64 : 00;
 3B65 : 00;
 3B66 : 00;
 3B67 : 00;
 3B68 : 00;
 3B69 : 00;
 3B6A : 00;
 3B6B : 00;
 3B6C : 00;
 3B6D : 00;
 3B6E : 00;
 3B6F : 00;
 3B70 : 00;
 3B71 : 00;
 3B72 : 00;
 3B73 : 00;
 3B74 : 00;
 3B75 : 00;
 3B76 : 00;
 3B77 : 00;
 3B78 : 00;
 3B79 : 00;
 3B7A : 00;
 3B7B : 00;
 3B7C : 00;
 3B7D : 00;
 3B7E : 00;
 3B7F : 00;
 3B80 : 00;
 3B81 : 00;
 3B82 : 00;
 3B83 : 00;
 3B84 : 00;
 3B85 : 00;
 3B86 : 00;
 3B87 : 00;
 3B88 : 00;
 3B89 : 00;
 3B8A : 00;
 3B8B : 00;
 3B8C : 00;
 3B8D : 00;
 3B8E : 00;
 3B8F : 00;
 3B90 : 00;
 3B91 : 00;
 3B92 : 00;
 3B93 : 00;
 3B94 : 00;
 3B95 : 00;
 3B96 : 00;
 3B97 : 00;
 3B98 : 00;
 3B99 : 00;
 3B9A : 00;
 3B9B : 00;
 3B9C : 00;
 3B9D : 00;
 3B9E : 00;
 3B9F : 00;
 3BA0 : 00;
 3BA1 : 00;
 3BA2 : 00;
 3BA3 : 00;
 3BA4 : 00;
 3BA5 : 00;
 3BA6 : 00;
 3BA7 : 00;
 3BA8 : 00;
 3BA9 : 00;
 3BAA : 00;
 3BAB : 00;
 3BAC : 00;
 3BAD : 00;
 3BAE : 00;
 3BAF : 00;
 3BB0 : 00;
 3BB1 : 00;
 3BB2 : 00;
 3BB3 : 00;
 3BB4 : 00;
 3BB5 : 00;
 3BB6 : 00;
 3BB7 : 00;
 3BB8 : 00;
 3BB9 : 00;
 3BBA : 00;
 3BBB : 00;
 3BBC : 00;
 3BBD : 00;
 3BBE : 00;
 3BBF : 00;
 3BC0 : 00;
 3BC1 : 00;
 3BC2 : 00;
 3BC3 : 00;
 3BC4 : 00;
 3BC5 : 00;
 3BC6 : 00;
 3BC7 : 00;
 3BC8 : 00;
 3BC9 : 00;
 3BCA : 00;
 3BCB : 00;
 3BCC : 00;
 3BCD : 00;
 3BCE : 00;
 3BCF : 00;
 3BD0 : 00;
 3BD1 : 00;
 3BD2 : 00;
 3BD3 : 00;
 3BD4 : 00;
 3BD5 : 00;
 3BD6 : 00;
 3BD7 : 00;
 3BD8 : 00;
 3BD9 : 00;
 3BDA : 00;
 3BDB : 00;
 3BDC : 00;
 3BDD : 00;
 3BDE : 00;
 3BDF : 00;
 3BE0 : 00;
 3BE1 : 00;
 3BE2 : 00;
 3BE3 : 00;
 3BE4 : 00;
 3BE5 : 00;
 3BE6 : 00;
 3BE7 : 00;
 3BE8 : 00;
 3BE9 : 00;
 3BEA : 00;
 3BEB : 00;
 3BEC : 00;
 3BED : 00;
 3BEE : 00;
 3BEF : 00;
 3BF0 : 00;
 3BF1 : 00;
 3BF2 : 00;
 3BF3 : 00;
 3BF4 : 00;
 3BF5 : 00;
 3BF6 : 00;
 3BF7 : 00;
 3BF8 : 00;
 3BF9 : 00;
 3BFA : 00;
 3BFB : 00;
 3BFC : 00;
 3BFD : 00;
 3BFE : 00;
 3BFF : 00;
 3C00 : 00;
 3C01 : 00;
 3C02 : 00;
 3C03 : 00;
 3C04 : 00;
 3C05 : 00;
 3C06 : 00;
 3C07 : 00;
 3C08 : 00;
 3C09 : 00;
 3C0A : 00;
 3C0B : 00;
 3C0C : 00;
 3C0D : 00;
 3C0E : 00;
 3C0F : 00;
 3C10 : 00;
 3C11 : 00;
 3C12 : 00;
 3C13 : 00;
 3C14 : 00;
 3C15 : 00;
 3C16 : 00;
 3C17 : 00;
 3C18 : 00;
 3C19 : 00;
 3C1A : 00;
 3C1B : 00;
 3C1C : 00;
 3C1D : 00;
 3C1E : 00;
 3C1F : 00;
 3C20 : 00;
 3C21 : 00;
 3C22 : 00;
 3C23 : 00;
 3C24 : 00;
 3C25 : 00;
 3C26 : 00;
 3C27 : 00;
 3C28 : 00;
 3C29 : 00;
 3C2A : 00;
 3C2B : 00;
 3C2C : 00;
 3C2D : 00;
 3C2E : 00;
 3C2F : 00;
 3C30 : 00;
 3C31 : 00;
 3C32 : 00;
 3C33 : 00;
 3C34 : 00;
 3C35 : 00;
 3C36 : 00;
 3C37 : 00;
 3C38 : 00;
 3C39 : 00;
 3C3A : 00;
 3C3B : 00;
 3C3C : 00;
 3C3D : 00;
 3C3E : 00;
 3C3F : 00;
 3C40 : 00;
 3C41 : 00;
 3C42 : 00;
 3C43 : 00;
 3C44 : 00;
 3C45 : 00;
 3C46 : 00;
 3C47 : 00;
 3C48 : 00;
 3C49 : 00;
 3C4A : 00;
 3C4B : 00;
 3C4C : 00;
 3C4D : 00;
 3C4E : 00;
 3C4F : 00;
 3C50 : 00;
 3C51 : 00;
 3C52 : 00;
 3C53 : 00;
 3C54 : 00;
 3C55 : 00;
 3C56 : 00;
 3C57 : 00;
 3C58 : 00;
 3C59 : 00;
 3C5A : 00;
 3C5B : 00;
 3C5C : 00;
 3C5D : 00;
 3C5E : 00;
 3C5F : 00;
 3C60 : 00;
 3C61 : 00;
 3C62 : 00;
 3C63 : 00;
 3C64 : 00;
 3C65 : 00;
 3C66 : 00;
 3C67 : 00;
 3C68 : 00;
 3C69 : 00;
 3C6A : 00;
 3C6B : 00;
 3C6C : 00;
 3C6D : 00;
 3C6E : 00;
 3C6F : 00;
 3C70 : 00;
 3C71 : 00;
 3C72 : 00;
 3C73 : 00;
 3C74 : 00;
 3C75 : 00;
 3C76 : 00;
 3C77 : 00;
 3C78 : 00;
 3C79 : 00;
 3C7A : 00;
 3C7B : 00;
 3C7C : 00;
 3C7D : 00;
 3C7E : 00;
 3C7F : 00;
 3C80 : 00;
 3C81 : 00;
 3C82 : 00;
 3C83 : 00;
 3C84 : 00;
 3C85 : 00;
 3C86 : 00;
 3C87 : 00;
 3C88 : 00;
 3C89 : 00;
 3C8A : 00;
 3C8B : 00;
 3C8C : 00;
 3C8D : 00;
 3C8E : 00;
 3C8F : 00;
 3C90 : 00;
 3C91 : 00;
 3C92 : 00;
 3C93 : 00;
 3C94 : 00;
 3C95 : 00;
 3C96 : 00;
 3C97 : 00;
 3C98 : 00;
 3C99 : 00;
 3C9A : 00;
 3C9B : 00;
 3C9C : 00;
 3C9D : 00;
 3C9E : 00;
 3C9F : 00;
 3CA0 : 00;
 3CA1 : 00;
 3CA2 : 00;
 3CA3 : 00;
 3CA4 : 00;
 3CA5 : 00;
 3CA6 : 00;
 3CA7 : 00;
 3CA8 : 00;
 3CA9 : 00;
 3CAA : 00;
 3CAB : 00;
 3CAC : 00;
 3CAD : 00;
 3CAE : 00;
 3CAF : 00;
 3CB0 : 00;
 3CB1 : 00;
 3CB2 : 00;
 3CB3 : 00;
 3CB4 : 00;
 3CB5 : 00;
 3CB6 : 00;
 3CB7 : 00;
 3CB8 : 00;
 3CB9 : 00;
 3CBA : 00;
 3CBB : 00;
 3CBC : 00;
 3CBD : 00;
 3CBE : 00;
 3CBF : 00;
 3CC0 : 00;
 3CC1 : 00;
 3CC2 : 00;
 3CC3 : 00;
 3CC4 : 00;
 3CC5 : 00;
 3CC6 : 00;
 3CC7 : 00;
 3CC8 : 00;
 3CC9 : 00;
 3CCA : 00;
 3CCB : 00;
 3CCC : 00;
 3CCD : 00;
 3CCE : 00;
 3CCF : 00;
 3CD0 : 00;
 3CD1 : 00;
 3CD2 : 00;
 3CD3 : 00;
 3CD4 : 00;
 3CD5 : 00;
 3CD6 : 00;
 3CD7 : 00;
 3CD8 : 00;
 3CD9 : 00;
 3CDA : 00;
 3CDB : 00;
 3CDC : 00;
 3CDD : 00;
 3CDE : 00;
 3CDF : 00;
 3CE0 : 00;
 3CE1 : 00;
 3CE2 : 00;
 3CE3 : 00;
 3CE4 : 00;
 3CE5 : 00;
 3CE6 : 00;
 3CE7 : 00;
 3CE8 : 00;
 3CE9 : 00;
 3CEA : 00;
 3CEB : 00;
 3CEC : 00;
 3CED : 00;
 3CEE : 00;
 3CEF : 00;
 3CF0 : 00;
 3CF1 : 00;
 3CF2 : 00;
 3CF3 : 00;
 3CF4 : 00;
 3CF5 : 00;
 3CF6 : 00;
 3CF7 : 00;
 3CF8 : 00;
 3CF9 : 00;
 3CFA : 00;
 3CFB : 00;
 3CFC : 00;
 3CFD : 00;
 3CFE : 00;
 3CFF : 00;
 3D00 : 00;
 3D01 : 00;
 3D02 : 00;
 3D03 : 00;
 3D04 : 00;
 3D05 : 00;
 3D06 : 00;
 3D07 : 00;
 3D08 : 00;
 3D09 : 00;
 3D0A : 00;
 3D0B : 00;
 3D0C : 00;
 3D0D : 00;
 3D0E : 00;
 3D0F : 00;
 3D10 : 00;
 3D11 : 00;
 3D12 : 00;
 3D13 : 00;
 3D14 : 00;
 3D15 : 00;
 3D16 : 00;
 3D17 : 00;
 3D18 : 00;
 3D19 : 00;
 3D1A : 00;
 3D1B : 00;
 3D1C : 00;
 3D1D : 00;
 3D1E : 00;
 3D1F : 00;
 3D20 : 00;
 3D21 : 00;
 3D22 : 00;
 3D23 : 00;
 3D24 : 00;
 3D25 : 00;
 3D26 : 00;
 3D27 : 00;
 3D28 : 00;
 3D29 : 00;
 3D2A : 00;
 3D2B : 00;
 3D2C : 00;
 3D2D : 00;
 3D2E : 00;
 3D2F : 00;
 3D30 : 00;
 3D31 : 00;
 3D32 : 00;
 3D33 : 00;
 3D34 : 00;
 3D35 : 00;
 3D36 : 00;
 3D37 : 00;
 3D38 : 00;
 3D39 : 00;
 3D3A : 00;
 3D3B : 00;
 3D3C : 00;
 3D3D : 00;
 3D3E : 00;
 3D3F : 00;
 3D40 : 00;
 3D41 : 00;
 3D42 : 00;
 3D43 : 00;
 3D44 : 00;
 3D45 : 00;
 3D46 : 00;
 3D47 : 00;
 3D48 : 00;
 3D49 : 00;
 3D4A : 00;
 3D4B : 00;
 3D4C : 00;
 3D4D : 00;
 3D4E : 00;
 3D4F : 00;
 3D50 : 00;
 3D51 : 00;
 3D52 : 00;
 3D53 : 00;
 3D54 : 00;
 3D55 : 00;
 3D56 : 00;
 3D57 : 00;
 3D58 : 00;
 3D59 : 00;
 3D5A : 00;
 3D5B : 00;
 3D5C : 00;
 3D5D : 00;
 3D5E : 00;
 3D5F : 00;
 3D60 : 00;
 3D61 : 00;
 3D62 : 00;
 3D63 : 00;
 3D64 : 00;
 3D65 : 00;
 3D66 : 00;
 3D67 : 00;
 3D68 : 00;
 3D69 : 00;
 3D6A : 00;
 3D6B : 00;
 3D6C : 00;
 3D6D : 00;
 3D6E : 00;
 3D6F : 00;
 3D70 : 00;
 3D71 : 00;
 3D72 : 00;
 3D73 : 00;
 3D74 : 00;
 3D75 : 00;
 3D76 : 00;
 3D77 : 00;
 3D78 : 00;
 3D79 : 00;
 3D7A : 00;
 3D7B : 00;
 3D7C : 00;
 3D7D : 00;
 3D7E : 00;
 3D7F : 00;
 3D80 : 00;
 3D81 : 00;
 3D82 : 00;
 3D83 : 00;
 3D84 : 00;
 3D85 : 00;
 3D86 : 00;
 3D87 : 00;
 3D88 : 00;
 3D89 : 00;
 3D8A : 00;
 3D8B : 00;
 3D8C : 00;
 3D8D : 00;
 3D8E : 00;
 3D8F : 00;
 3D90 : 00;
 3D91 : 00;
 3D92 : 00;
 3D93 : 00;
 3D94 : 00;
 3D95 : 00;
 3D96 : 00;
 3D97 : 00;
 3D98 : 00;
 3D99 : 00;
 3D9A : 00;
 3D9B : 00;
 3D9C : 00;
 3D9D : 00;
 3D9E : 00;
 3D9F : 00;
 3DA0 : 00;
 3DA1 : 00;
 3DA2 : 00;
 3DA3 : 00;
 3DA4 : 00;
 3DA5 : 00;
 3DA6 : 00;
 3DA7 : 00;
 3DA8 : 00;
 3DA9 : 00;
 3DAA : 00;
 3DAB : 00;
 3DAC : 00;
 3DAD : 00;
 3DAE : 00;
 3DAF : 00;
 3DB0 : 00;
 3DB1 : 00;
 3DB2 : 00;
 3DB3 : 00;
 3DB4 : 00;
 3DB5 : 00;
 3DB6 : 00;
 3DB7 : 00;
 3DB8 : 00;
 3DB9 : 00;
 3DBA : 00;
 3DBB : 00;
 3DBC : 00;
 3DBD : 00;
 3DBE : 00;
 3DBF : 00;
 3DC0 : 00;
 3DC1 : 00;
 3DC2 : 00;
 3DC3 : 00;
 3DC4 : 00;
 3DC5 : 00;
 3DC6 : 00;
 3DC7 : 00;
 3DC8 : 00;
 3DC9 : 00;
 3DCA : 00;
 3DCB : 00;
 3DCC : 00;
 3DCD : 00;
 3DCE : 00;
 3DCF : 00;
 3DD0 : 00;
 3DD1 : 00;
 3DD2 : 00;
 3DD3 : 00;
 3DD4 : 00;
 3DD5 : 00;
 3DD6 : 00;
 3DD7 : 00;
 3DD8 : 00;
 3DD9 : 00;
 3DDA : 00;
 3DDB : 00;
 3DDC : 00;
 3DDD : 00;
 3DDE : 00;
 3DDF : 00;
 3DE0 : 00;
 3DE1 : 00;
 3DE2 : 00;
 3DE3 : 00;
 3DE4 : 00;
 3DE5 : 00;
 3DE6 : 00;
 3DE7 : 00;
 3DE8 : 00;
 3DE9 : 00;
 3DEA : 00;
 3DEB : 00;
 3DEC : 00;
 3DED : 00;
 3DEE : 00;
 3DEF : 00;
 3DF0 : 00;
 3DF1 : 00;
 3DF2 : 00;
 3DF3 : 00;
 3DF4 : 00;
 3DF5 : 00;
 3DF6 : 00;
 3DF7 : 00;
 3DF8 : 00;
 3DF9 : 00;
 3DFA : 00;
 3DFB : 00;
 3DFC : 00;
 3DFD : 00;
 3DFE : 00;
 3DFF : 00;
 3E00 : 00;
 3E01 : 00;
 3E02 : 00;
 3E03 : 00;
 3E04 : 00;
 3E05 : 00;
 3E06 : 00;
 3E07 : 00;
 3E08 : 00;
 3E09 : 00;
 3E0A : 00;
 3E0B : 00;
 3E0C : 00;
 3E0D : 00;
 3E0E : 00;
 3E0F : 00;
 3E10 : 00;
 3E11 : 00;
 3E12 : 00;
 3E13 : 00;
 3E14 : 00;
 3E15 : 00;
 3E16 : 00;
 3E17 : 00;
 3E18 : 00;
 3E19 : 00;
 3E1A : 00;
 3E1B : 00;
 3E1C : 00;
 3E1D : 00;
 3E1E : 00;
 3E1F : 00;
 3E20 : 00;
 3E21 : 00;
 3E22 : 00;
 3E23 : 00;
 3E24 : 00;
 3E25 : 00;
 3E26 : 00;
 3E27 : 00;
 3E28 : 00;
 3E29 : 00;
 3E2A : 00;
 3E2B : 00;
 3E2C : 00;
 3E2D : 00;
 3E2E : 00;
 3E2F : 00;
 3E30 : 00;
 3E31 : 00;
 3E32 : 00;
 3E33 : 00;
 3E34 : 00;
 3E35 : 00;
 3E36 : 00;
 3E37 : 00;
 3E38 : 00;
 3E39 : 00;
 3E3A : 00;
 3E3B : 00;
 3E3C : 00;
 3E3D : 00;
 3E3E : 00;
 3E3F : 00;
 3E40 : 00;
 3E41 : 00;
 3E42 : 00;
 3E43 : 00;
 3E44 : 00;
 3E45 : 00;
 3E46 : 00;
 3E47 : 00;
 3E48 : 00;
 3E49 : 00;
 3E4A : 00;
 3E4B : 00;
 3E4C : 00;
 3E4D : 00;
 3E4E : 00;
 3E4F : 00;
 3E50 : 00;
 3E51 : 00;
 3E52 : 00;
 3E53 : 00;
 3E54 : 00;
 3E55 : 00;
 3E56 : 00;
 3E57 : 00;
 3E58 : 00;
 3E59 : 00;
 3E5A : 00;
 3E5B : 00;
 3E5C : 00;
 3E5D : 00;
 3E5E : 00;
 3E5F : 00;
 3E60 : 00;
 3E61 : 00;
 3E62 : 00;
 3E63 : 00;
 3E64 : 00;
 3E65 : 00;
 3E66 : 00;
 3E67 : 00;
 3E68 : 00;
 3E69 : 00;
 3E6A : 00;
 3E6B : 00;
 3E6C : 00;
 3E6D : 00;
 3E6E : 00;
 3E6F : 00;
 3E70 : 00;
 3E71 : 00;
 3E72 : 00;
 3E73 : 00;
 3E74 : 00;
 3E75 : 00;
 3E76 : 00;
 3E77 : 00;
 3E78 : 00;
 3E79 : 00;
 3E7A : 00;
 3E7B : 00;
 3E7C : 00;
 3E7D : 00;
 3E7E : 00;
 3E7F : 00;
 3E80 : 00;
 3E81 : 00;
 3E82 : 00;
 3E83 : 00;
 3E84 : 00;
 3E85 : 00;
 3E86 : 00;
 3E87 : 00;
 3E88 : 00;
 3E89 : 00;
 3E8A : 00;
 3E8B : 00;
 3E8C : 00;
 3E8D : 00;
 3E8E : 00;
 3E8F : 00;
 3E90 : 00;
 3E91 : 00;
 3E92 : 00;
 3E93 : 00;
 3E94 : 00;
 3E95 : 00;
 3E96 : 00;
 3E97 : 00;
 3E98 : 00;
 3E99 : 00;
 3E9A : 00;
 3E9B : 00;
 3E9C : 00;
 3E9D : 00;
 3E9E : 00;
 3E9F : 00;
 3EA0 : 00;
 3EA1 : 00;
 3EA2 : 00;
 3EA3 : 00;
 3EA4 : 00;
 3EA5 : 00;
 3EA6 : 00;
 3EA7 : 00;
 3EA8 : 00;
 3EA9 : 00;
 3EAA : 00;
 3EAB : 00;
 3EAC : 00;
 3EAD : 00;
 3EAE : 00;
 3EAF : 00;
 3EB0 : 00;
 3EB1 : 00;
 3EB2 : 00;
 3EB3 : 00;
 3EB4 : 00;
 3EB5 : 00;
 3EB6 : 00;
 3EB7 : 00;
 3EB8 : 00;
 3EB9 : 00;
 3EBA : 00;
 3EBB : 00;
 3EBC : 00;
 3EBD : 00;
 3EBE : 00;
 3EBF : 00;
 3EC0 : 00;
 3EC1 : 00;
 3EC2 : 00;
 3EC3 : 00;
 3EC4 : 00;
 3EC5 : 00;
 3EC6 : 00;
 3EC7 : 00;
 3EC8 : 00;
 3EC9 : 00;
 3ECA : 00;
 3ECB : 00;
 3ECC : 00;
 3ECD : 00;
 3ECE : 00;
 3ECF : 00;
 3ED0 : 00;
 3ED1 : 00;
 3ED2 : 00;
 3ED3 : 00;
 3ED4 : 00;
 3ED5 : 00;
 3ED6 : 00;
 3ED7 : 00;
 3ED8 : 00;
 3ED9 : 00;
 3EDA : 00;
 3EDB : 00;
 3EDC : 00;
 3EDD : 00;
 3EDE : 00;
 3EDF : 00;
 3EE0 : 00;
 3EE1 : 00;
 3EE2 : 00;
 3EE3 : 00;
 3EE4 : 00;
 3EE5 : 00;
 3EE6 : 00;
 3EE7 : 00;
 3EE8 : 00;
 3EE9 : 00;
 3EEA : 00;
 3EEB : 00;
 3EEC : 00;
 3EED : 00;
 3EEE : 00;
 3EEF : 00;
 3EF0 : 00;
 3EF1 : 00;
 3EF2 : 00;
 3EF3 : 00;
 3EF4 : 00;
 3EF5 : 00;
 3EF6 : 00;
 3EF7 : 00;
 3EF8 : 00;
 3EF9 : 00;
 3EFA : 00;
 3EFB : 00;
 3EFC : 00;
 3EFD : 00;
 3EFE : 00;
 3EFF : 00;
 3F00 : 00;
 3F01 : 00;
 3F02 : 00;
 3F03 : 00;
 3F04 : 00;
 3F05 : 00;
 3F06 : 00;
 3F07 : 00;
 3F08 : 00;
 3F09 : 00;
 3F0A : 00;
 3F0B : 00;
 3F0C : 00;
 3F0D : 00;
 3F0E : 00;
 3F0F : 00;
 3F10 : 00;
 3F11 : 00;
 3F12 : 00;
 3F13 : 00;
 3F14 : 00;
 3F15 : 00;
 3F16 : 00;
 3F17 : 00;
 3F18 : 00;
 3F19 : 00;
 3F1A : 00;
 3F1B : 00;
 3F1C : 00;
 3F1D : 00;
 3F1E : 00;
 3F1F : 00;
 3F20 : 00;
 3F21 : 00;
 3F22 : 00;
 3F23 : 00;
 3F24 : 00;
 3F25 : 00;
 3F26 : 00;
 3F27 : 00;
 3F28 : 00;
 3F29 : 00;
 3F2A : 00;
 3F2B : 00;
 3F2C : 00;
 3F2D : 00;
 3F2E : 00;
 3F2F : 00;
 3F30 : 00;
 3F31 : 00;
 3F32 : 00;
 3F33 : 00;
 3F34 : 00;
 3F35 : 00;
 3F36 : 00;
 3F37 : 00;
 3F38 : 00;
 3F39 : 00;
 3F3A : 00;
 3F3B : 00;
 3F3C : 00;
 3F3D : 00;
 3F3E : 00;
 3F3F : 00;
 3F40 : 00;
 3F41 : 00;
 3F42 : 00;
 3F43 : 00;
 3F44 : 00;
 3F45 : 00;
 3F46 : 00;
 3F47 : 00;
 3F48 : 00;
 3F49 : 00;
 3F4A : 00;
 3F4B : 00;
 3F4C : 00;
 3F4D : 00;
 3F4E : 00;
 3F4F : 00;
 3F50 : 00;
 3F51 : 00;
 3F52 : 00;
 3F53 : 00;
 3F54 : 00;
 3F55 : 00;
 3F56 : 00;
 3F57 : 00;
 3F58 : 00;
 3F59 : 00;
 3F5A : 00;
 3F5B : 00;
 3F5C : 00;
 3F5D : 00;
 3F5E : 00;
 3F5F : 00;
 3F60 : 00;
 3F61 : 00;
 3F62 : 00;
 3F63 : 00;
 3F64 : 00;
 3F65 : 00;
 3F66 : 00;
 3F67 : 00;
 3F68 : 00;
 3F69 : 00;
 3F6A : 00;
 3F6B : 00;
 3F6C : 00;
 3F6D : 00;
 3F6E : 00;
 3F6F : 00;
 3F70 : 00;
 3F71 : 00;
 3F72 : 00;
 3F73 : 00;
 3F74 : 00;
 3F75 : 00;
 3F76 : 00;
 3F77 : 00;
 3F78 : 00;
 3F79 : 00;
 3F7A : 00;
 3F7B : 00;
 3F7C : 00;
 3F7D : 00;
 3F7E : 00;
 3F7F : 00;
 3F80 : 00;
 3F81 : 00;
 3F82 : 00;
 3F83 : 00;
 3F84 : 00;
 3F85 : 00;
 3F86 : 00;
 3F87 : 00;
 3F88 : 00;
 3F89 : 00;
 3F8A : 00;
 3F8B : 00;
 3F8C : 00;
 3F8D : 00;
 3F8E : 00;
 3F8F : 00;
 3F90 : 00;
 3F91 : 00;
 3F92 : 00;
 3F93 : 00;
 3F94 : 00;
 3F95 : 00;
 3F96 : 00;
 3F97 : 00;
 3F98 : 00;
 3F99 : 00;
 3F9A : 00;
 3F9B : 00;
 3F9C : 00;
 3F9D : 00;
 3F9E : 00;
 3F9F : 00;
 3FA0 : 00;
 3FA1 : 00;
 3FA2 : 00;
 3FA3 : 00;
 3FA4 : 00;
 3FA5 : 00;
 3FA6 : 00;
 3FA7 : 00;
 3FA8 : 00;
 3FA9 : 00;
 3FAA : 00;
 3FAB : 00;
 3FAC : 00;
 3FAD : 00;
 3FAE : 00;
 3FAF : 00;
 3FB0 : 00;
 3FB1 : 00;
 3FB2 : 00;
 3FB3 : 00;
 3FB4 : 00;
 3FB5 : 00;
 3FB6 : 00;
 3FB7 : 00;
 3FB8 : 00;
 3FB9 : 00;
 3FBA : 00;
 3FBB : 00;
 3FBC : 00;
 3FBD : 00;
 3FBE : 00;
 3FBF : 00;
 3FC0 : 00;
 3FC1 : 00;
 3FC2 : 00;
 3FC3 : 00;
 3FC4 : 00;
 3FC5 : 00;
 3FC6 : 00;
 3FC7 : 00;
 3FC8 : 00;
 3FC9 : 00;
 3FCA : 00;
 3FCB : 00;
 3FCC : 00;
 3FCD : 00;
 3FCE : 00;
 3FCF : 00;
 3FD0 : 00;
 3FD1 : 00;
 3FD2 : 00;
 3FD3 : 00;
 3FD4 : 00;
 3FD5 : 00;
 3FD6 : 00;
 3FD7 : 00;
 3FD8 : 00;
 3FD9 : 00;
 3FDA : 00;
 3FDB : 00;
 3FDC : 00;
 3FDD : 00;
 3FDE : 00;
 3FDF : 00;
 3FE0 : 00;
 3FE1 : 00;
 3FE2 : 00;
 3FE3 : 00;
 3FE4 : 00;
 3FE5 : 00;
 3FE6 : 00;
 3FE7 : 00;
 3FE8 : 00;
 3FE9 : 00;
 3FEA : 00;
 3FEB : 00;
 3FEC : 00;
 3FED : 00;
 3FEE : 00;
 3FEF : 00;
 3FF0 : 00;
 3FF1 : 00;
 3FF2 : 00;
 3FF3 : 00;
 3FF4 : 00;
 3FF5 : 00;
 3FF6 : 00;
 3FF7 : 00;
 3FF8 : 00;
 3FF9 : 00;
 3FFA : 00;
 3FFB : 00;
 3FFC : 00;
 3FFD : 00;
 3FFE : 00;
 3FFF : 00;
END;
